Program Version,EnergyPlus, Version 9.4.0-998c4b761e, YMD=2021.03.02 09:47
! <Version>, Version ID
 Version, 9.4
! <Timesteps per Hour>, #TimeSteps, Minutes per TimeStep {minutes}
 Timesteps per Hour,  1, 60
! <System Convergence Limits>, Minimum System TimeStep {minutes}, Max HVAC Iterations, Minimum Plant Iterations, Maximum Plant Iterations
 System Convergence Limits, 1, 20, 2, 8
! <Simulation Control>, Do Zone Sizing, Do System Sizing, Do Plant Sizing, Do Design Days, Do Weather Simulation, Do HVAC Sizing Simulation
 Simulation Control, Yes, Yes, Yes, No, Yes, Yes
! <Performance Precision Tradeoffs>, Use Coil Direct Simulation, Zone Radiant Exchange Algorithm, Override Mode, Number of Timestep In Hour, Force Euler Method, Minimum Number of Warmup Days, Force Suppress All Begin Environment Resets, Minimum System Timestep, MaxZoneTempDiff, MaxAllowedDelTemp
 Performance Precision Tradeoffs, No, ScriptF, Normal, 1, No, 1, No, 1.0, 0.300, 2.0000E-003
! <Output Reporting Tolerances>, Tolerance for Time Heating Setpoint Not Met, Tolerance for Zone Cooling Setpoint Not Met Time
 Output Reporting Tolerances, 0.556, 0.556,
! <Site:GroundTemperature:BuildingSurface>,Jan{C},Feb{C},Mar{C},Apr{C},May{C},Jun{C},Jul{C},Aug{C},Sep{C},Oct{C},Nov{C},Dec{C}
 Site:GroundTemperature:BuildingSurface,  18.00,  18.00,  18.00,  18.00,  18.00,  18.00,  18.00,  18.00,  18.00,  18.00,  18.00,  18.00
! <Site:GroundTemperature:FCfactorMethod>,Jan{C},Feb{C},Mar{C},Apr{C},May{C},Jun{C},Jul{C},Aug{C},Sep{C},Oct{C},Nov{C},Dec{C}
 Site:GroundTemperature:FCfactorMethod,   7.40,   0.00,  -7.60, -12.60,  -7.70,   0.30,   7.00,  14.20,  19.20,  20.90,  20.00,  15.40
! <Site:GroundTemperature:Shallow>,Jan{C},Feb{C},Mar{C},Apr{C},May{C},Jun{C},Jul{C},Aug{C},Sep{C},Oct{C},Nov{C},Dec{C}
 Site:GroundTemperature:Shallow,  13.00,  13.00,  13.00,  13.00,  13.00,  13.00,  13.00,  13.00,  13.00,  13.00,  13.00,  13.00
! <Site:GroundTemperature:Deep>,Jan{C},Feb{C},Mar{C},Apr{C},May{C},Jun{C},Jul{C},Aug{C},Sep{C},Oct{C},Nov{C},Dec{C}
 Site:GroundTemperature:Deep,  16.00,  16.00,  16.00,  16.00,  16.00,  16.00,  16.00,  16.00,  16.00,  16.00,  16.00,  16.00
! <Site:GroundReflectance>,Jan{dimensionless},Feb{dimensionless},Mar{dimensionless},Apr{dimensionless},May{dimensionless},Jun{dimensionless},Jul{dimensionless},Aug{dimensionless},Sep{dimensionless},Oct{dimensionless},Nov{dimensionless},Dec{dimensionless}
 Site:GroundReflectance,  0.20,  0.20,  0.20,  0.20,  0.20,  0.20,  0.20,  0.20,  0.20,  0.20,  0.20,  0.20
! <Site:GroundReflectance:SnowModifier>, Normal, Daylighting {dimensionless}
 Site:GroundReflectance:SnowModifier,   1.000,   1.000
! <Site:GroundReflectance:Snow>,Jan{dimensionless},Feb{dimensionless},Mar{dimensionless},Apr{dimensionless},May{dimensionless},Jun{dimensionless},Jul{dimensionless},Aug{dimensionless},Sep{dimensionless},Oct{dimensionless},Nov{dimensionless},Dec{dimensionless}
 Site:GroundReflectance:Snow,  0.20,  0.20,  0.20,  0.20,  0.20,  0.20,  0.20,  0.20,  0.20,  0.20,  0.20,  0.20
! <Site:GroundReflectance:Snow:Daylighting>,Jan{dimensionless},Feb{dimensionless},Mar{dimensionless},Apr{dimensionless},May{dimensionless},Jun{dimensionless},Jul{dimensionless},Aug{dimensionless},Sep{dimensionless},Oct{dimensionless},Nov{dimensionless},Dec{dimensionless}
 Site:GroundReflectance:Snow:Daylighting,  0.20,  0.20,  0.20,  0.20,  0.20,  0.20,  0.20,  0.20,  0.20,  0.20,  0.20,  0.20
! <Environment:Weather Station>,Wind Sensor Height Above Ground {m},Wind Speed Profile Exponent {},Wind Speed Profile Boundary Layer Thickness {m},Air Temperature Sensor Height Above Ground {m},Wind Speed Modifier Coefficient-Internal,Temperature Modifier Coefficient-Internal
Environment:Weather Station,10.000,0.140,270.000,1.500,1.586,9.750E-003
! <Site:Location>, Location Name, Latitude {N+/S- Deg}, Longitude {E+/W- Deg},  Time Zone Number {GMT+/-}, Elevation {m},  Standard Pressure at Elevation {Pa}, Standard RhoAir at Elevation
Site:Location,Buffalo Niagara Intl Ap NY USA TMY3 WMO#=725280,42.93,-78.73,-5.00,215.00,98769,1.1739
! <Site Water Mains Temperature Information>,Calculation Method{},Water Mains Temperature Schedule Name{},Annual Average Outdoor Air Temperature{C},Maximum Difference In Monthly Average Outdoor Air Temperatures{deltaC},Fixed Default Water Mains Temperature{C}
Site Water Mains Temperature Information,Correlation,NA,8.97,26.20,NA
! <Building Information>, Building Name,North Axis {deg},Terrain,  Loads Convergence Tolerance Value,Temperature Convergence Tolerance Value,  Solar Distribution,Maximum Number of Warmup Days,Minimum Number of Warmup Days
 Building Information,Restaurant 1,0.000,City,4.00000E-002,0.40000,FullExterior,25,1
! <Inside Convection Algorithm>, Algorithm {Simple | TARP | CeilingDiffuser | AdaptiveConvectionAlgorithm}
Inside Convection Algorithm,TARP
! <Outside Convection Algorithm>, Algorithm {SimpleCombined | TARP | MoWitt | DOE-2 | AdaptiveConvectionAlgorithm}
Outside Convection Algorithm,DOE-2
! <Sky Radiance Distribution>, Value {Anisotropic}
Sky Radiance Distribution,Anisotropic
! <Zone Air Solution Algorithm>, Value {ThirdOrderBackwardDifference | AnalyticalSolution | EulerMethod}
 Zone Air Solution Algorithm, ThirdOrderBackwardDifference
! <Zone Air Carbon Dioxide Balance Simulation>, Simulation {Yes/No}, Carbon Dioxide Concentration
 Zone Air Carbon Dioxide Balance Simulation, No,N/A
! <Zone Air Generic Contaminant Balance Simulation>, Simulation {Yes/No}, Generic Contaminant Concentration
 Zone Air Generic Contaminant Balance Simulation, No,N/A
! <Zone Air Mass Flow Balance Simulation>, Enforce Mass Balance, Adjust Zone Mixing, Adjust Zone Infiltration {AddInfiltration | AdjustInfiltration | None}, Infiltration Zones {MixingSourceZonesOnly | AllZones}
 Zone Air Mass Flow Balance Simulation, No,N/A,N/A,N/A
! <HVACSystemRootFindingAlgorithm>, Value {RegulaFalsi | Bisection | BisectionThenRegulaFalsi | RegulaFalsiThenBisection}
 HVACSystemRootFindingAlgorithm, RegulaFalsi
! <Environment:Site Atmospheric Variation>,Wind Speed Profile Exponent {},Wind Speed Profile Boundary Layer Thickness {m},Air Temperature Gradient Coefficient {K/m}
Environment:Site Atmospheric Variation,0.330,460.000,6.500000E-003
! <Surface Geometry>,Starting Corner,Vertex Input Direction,Coordinate System,Daylight Reference Point Coordinate System,Rectangular (Simple) Surface Coordinate System
 Surface Geometry,UpperLeftCorner,Counterclockwise,RelativeCoordinateSystem,RelativeCoordinateSystem,RelativeToZoneOrigin
! <Surface Heat Transfer Algorithm>, Value {CTF - ConductionTransferFunction | EMPD - MoisturePenetrationDepthConductionTransferFunction | CondFD - ConductionFiniteDifference | HAMT - CombinedHeatAndMoistureFiniteElement} - Description,Inside Surface Max Temperature Limit{C}, Surface Convection Coefficient Lower Limit {W/m2-K}, Surface Convection Coefficient Upper Limit {W/m2-K}
Surface Heat Transfer Algorithm, CTF - ConductionTransferFunction,200,0.10,1000.0
! <Shading Summary>, Number of Fixed Detached Shades, Number of Building Detached Shades, Number of Attached Shades
 Shading Summary,0,24,0
! <Zone Summary>, Number of Zones, Number of Zone Surfaces, Number of SubSurfaces
 Zone Summary,5,99,4
! <Zone Information>,Zone Name,North Axis {deg},Origin X-Coordinate {m},Origin Y-Coordinate {m},Origin Z-Coordinate {m},Centroid X-Coordinate {m},Centroid Y-Coordinate {m},Centroid Z-Coordinate {m},Type,Zone Multiplier,Zone List Multiplier,Minimum X {m},Maximum X {m},Minimum Y {m},Maximum Y {m},Minimum Z {m},Maximum Z {m},Ceiling Height {m},Volume {m3},Zone Inside Convection Algorithm {Simple-Detailed-CeilingDiffuser-TrombeWall},Zone Outside Convection Algorithm {Simple-Detailed-Tarp-MoWitt-DOE-2-BLAST}, Floor Area {m2},Exterior Gross Wall Area {m2},Exterior Net Wall Area {m2},Exterior Window Area {m2}, Number of Surfaces, Number of SubSurfaces, Number of Shading SubSurfaces,  Part of Total Building Area
 Zone Information, BUILDING STORY 1 THERMALZONE,0.0,0.00,0.00,0.00,25.30,35.34,1.80,1,1,1,3.56,47.04,3.56,67.11,0.00,3.60,3.60,5612.88,TARP,DOE-2,1559.13,0.00,0.00,0.00,6,0,0,Yes
 Zone Information, BUILDING STORY 1 THERMALZONE 1,0.0,0.00,0.00,0.00,11.16,30.78,1.80,1,1,1,1.11E-011,21.53,2.82E-005,60.72,0.00,3.60,3.60,621.26,TARP,DOE-2,172.57,229.83,160.88,68.95,6,1,0,Yes
 Zone Information, BUILDING STORY 1 THERMALZONE 2,0.0,0.00,0.00,0.00,15.85,64.44,1.80,1,1,1,1.11E-011,30.89,58.90,70.68,0.00,3.60,3.60,301.65,TARP,DOE-2,83.79,116.83,81.78,35.05,6,1,0,Yes
 Zone Information, BUILDING STORY 1 THERMALZONE 3,0.0,0.00,0.00,0.00,39.44,39.90,1.80,1,1,1,29.07,50.60,9.95,70.68,0.00,3.60,3.60,621.26,TARP,DOE-2,172.57,229.83,160.88,68.95,6,1,0,Yes
 Zone Information, BUILDING STORY 1 THERMALZONE 4,0.0,0.00,0.00,0.00,34.74,6.24,1.80,1,1,1,19.71,50.60,2.82E-005,11.77,0.00,3.60,3.60,301.65,TARP,DOE-2,83.79,116.83,81.78,35.05,6,1,0,Yes
! <Zone Internal Gains Nominal>,Zone Name, Floor Area {m2},# Occupants,Area per Occupant {m2/person},Occupant per Area {person/m2},Interior Lighting {W/m2},Electric Load {W/m2},Gas Load {W/m2},Other Load {W/m2},Hot Water Eq {W/m2},Steam Equipment {W/m2},Sum Loads per Area {W/m2},Outdoor Controlled Baseboard Heat
 Zone Internal Gains Nominal, BUILDING STORY 1 THERMALZONE,1559.13,877.2,1.777,0.563,10.520,157.418,177.114,0.000,0.000,0.000,345.052,No
 Zone Internal Gains Nominal, BUILDING STORY 1 THERMALZONE 1,172.57,97.1,1.777,0.563,10.520,157.418,177.114,0.000,0.000,0.000,345.052,No
 Zone Internal Gains Nominal, BUILDING STORY 1 THERMALZONE 2,83.79,47.1,1.777,0.563,10.520,157.418,177.114,0.000,0.000,0.000,345.052,No
 Zone Internal Gains Nominal, BUILDING STORY 1 THERMALZONE 3,172.57,97.1,1.777,0.563,10.520,157.418,177.114,0.000,0.000,0.000,345.052,No
 Zone Internal Gains Nominal, BUILDING STORY 1 THERMALZONE 4,83.79,47.1,1.777,0.563,10.520,157.418,177.114,0.000,0.000,0.000,345.052,No
! <People Internal Gains Nominal>,Name,Schedule Name,Zone Name,Zone Floor Area {m2},# Zone Occupants,Number of People {},People/Floor Area {person/m2},Floor Area per person {m2/person},Fraction Radiant,Fraction Convected,Sensible Fraction Calculation,Activity level,ASHRAE 55 Warnings,Carbon Dioxide Generation Rate,Nominal Minimum Number of People,Nominal Maximum Number of People,MRT Calculation Type,Work Efficiency, Clothing Insulation Calculation Method,Clothing Insulation Calculation Method Schedule,Clothing,Air Velocity,Fanger Calculation,Pierce Calculation,KSU Calculation
 People Internal Gains Nominal, BUILDING STORY 1 THERMALZONE FULLSERVICERESTAURANT DINING PEOPLE 1,RESTAURANTSITDOWN BLDG_OCC_SCH,BUILDING STORY 1 THERMALZONE,1559.13,877.2,854.3,0.548,1.825,0.300,0.700,AutoCalculate,RESTAURANTSITDOWN ACTIVITY_SCH,Yes,3.8200E-008,0,854,Zone Averaged,WORK EFFICIENCY SCHEDULE,Clothing Insulation Schedule,N/A,CLOTHING SCHEDULE,AIR VELOCITY SCHEDULE,Yes,No,No
 People Internal Gains Nominal, BUILDING STORY 1 THERMALZONE 1 FULLSERVICERESTAURANT DINING PEOPLE 1,RESTAURANTSITDOWN BLDG_OCC_SCH,BUILDING STORY 1 THERMALZONE 1,172.57,97.1,94.6,0.548,1.825,0.300,0.700,AutoCalculate,RESTAURANTSITDOWN ACTIVITY_SCH,Yes,3.8200E-008,0,95,Zone Averaged,WORK EFFICIENCY SCHEDULE,Clothing Insulation Schedule,N/A,CLOTHING SCHEDULE,AIR VELOCITY SCHEDULE,Yes,No,No
 People Internal Gains Nominal, BUILDING STORY 1 THERMALZONE 2 FULLSERVICERESTAURANT DINING PEOPLE 1,RESTAURANTSITDOWN BLDG_OCC_SCH,BUILDING STORY 1 THERMALZONE 2,83.79,47.1,45.9,0.548,1.825,0.300,0.700,AutoCalculate,RESTAURANTSITDOWN ACTIVITY_SCH,Yes,3.8200E-008,0,46,Zone Averaged,WORK EFFICIENCY SCHEDULE,Clothing Insulation Schedule,N/A,CLOTHING SCHEDULE,AIR VELOCITY SCHEDULE,Yes,No,No
 People Internal Gains Nominal, BUILDING STORY 1 THERMALZONE 3 FULLSERVICERESTAURANT DINING PEOPLE 1,RESTAURANTSITDOWN BLDG_OCC_SCH,BUILDING STORY 1 THERMALZONE 3,172.57,97.1,94.6,0.548,1.825,0.300,0.700,AutoCalculate,RESTAURANTSITDOWN ACTIVITY_SCH,Yes,3.8200E-008,0,95,Zone Averaged,WORK EFFICIENCY SCHEDULE,Clothing Insulation Schedule,N/A,CLOTHING SCHEDULE,AIR VELOCITY SCHEDULE,Yes,No,No
 People Internal Gains Nominal, BUILDING STORY 1 THERMALZONE 4 FULLSERVICERESTAURANT DINING PEOPLE 1,RESTAURANTSITDOWN BLDG_OCC_SCH,BUILDING STORY 1 THERMALZONE 4,83.79,47.1,45.9,0.548,1.825,0.300,0.700,AutoCalculate,RESTAURANTSITDOWN ACTIVITY_SCH,Yes,3.8200E-008,0,46,Zone Averaged,WORK EFFICIENCY SCHEDULE,Clothing Insulation Schedule,N/A,CLOTHING SCHEDULE,AIR VELOCITY SCHEDULE,Yes,No,No
 People Internal Gains Nominal, BUILDING STORY 1 THERMALZONE FULLSERVICERESTAURANT KITCHEN PEOPLE 1,RESTAURANTSITDOWN BLDG_OCC_SCH,BUILDING STORY 1 THERMALZONE,1559.13,877.2,22.9,1.468E-002,68.111,0.300,0.700,AutoCalculate,RESTAURANTSITDOWN ACTIVITY_SCH,Yes,3.8200E-008,0,23,Zone Averaged,WORK EFFICIENCY SCHEDULE,Clothing Insulation Schedule,N/A,CLOTHING SCHEDULE,AIR VELOCITY SCHEDULE,Yes,No,No
 People Internal Gains Nominal, BUILDING STORY 1 THERMALZONE 1 FULLSERVICERESTAURANT KITCHEN PEOPLE 1,RESTAURANTSITDOWN BLDG_OCC_SCH,BUILDING STORY 1 THERMALZONE 1,172.57,97.1,2.5,1.468E-002,68.111,0.300,0.700,AutoCalculate,RESTAURANTSITDOWN ACTIVITY_SCH,Yes,3.8200E-008,0,3,Zone Averaged,WORK EFFICIENCY SCHEDULE,Clothing Insulation Schedule,N/A,CLOTHING SCHEDULE,AIR VELOCITY SCHEDULE,Yes,No,No
 People Internal Gains Nominal, BUILDING STORY 1 THERMALZONE 2 FULLSERVICERESTAURANT KITCHEN PEOPLE 1,RESTAURANTSITDOWN BLDG_OCC_SCH,BUILDING STORY 1 THERMALZONE 2,83.79,47.1,1.2,1.468E-002,68.111,0.300,0.700,AutoCalculate,RESTAURANTSITDOWN ACTIVITY_SCH,Yes,3.8200E-008,0,1,Zone Averaged,WORK EFFICIENCY SCHEDULE,Clothing Insulation Schedule,N/A,CLOTHING SCHEDULE,AIR VELOCITY SCHEDULE,Yes,No,No
 People Internal Gains Nominal, BUILDING STORY 1 THERMALZONE 3 FULLSERVICERESTAURANT KITCHEN PEOPLE 1,RESTAURANTSITDOWN BLDG_OCC_SCH,BUILDING STORY 1 THERMALZONE 3,172.57,97.1,2.5,1.468E-002,68.111,0.300,0.700,AutoCalculate,RESTAURANTSITDOWN ACTIVITY_SCH,Yes,3.8200E-008,0,3,Zone Averaged,WORK EFFICIENCY SCHEDULE,Clothing Insulation Schedule,N/A,CLOTHING SCHEDULE,AIR VELOCITY SCHEDULE,Yes,No,No
 People Internal Gains Nominal, BUILDING STORY 1 THERMALZONE 4 FULLSERVICERESTAURANT KITCHEN PEOPLE 1,RESTAURANTSITDOWN BLDG_OCC_SCH,BUILDING STORY 1 THERMALZONE 4,83.79,47.1,1.2,1.468E-002,68.111,0.300,0.700,AutoCalculate,RESTAURANTSITDOWN ACTIVITY_SCH,Yes,3.8200E-008,0,1,Zone Averaged,WORK EFFICIENCY SCHEDULE,Clothing Insulation Schedule,N/A,CLOTHING SCHEDULE,AIR VELOCITY SCHEDULE,Yes,No,No
! <Lights Internal Gains Nominal>,Name,Schedule Name,Zone Name,Zone Floor Area {m2},# Zone Occupants,Lighting Level {W},Lights/Floor Area {W/m2},Lights per person {W/person},Fraction Return Air,Fraction Radiant,Fraction Short Wave,Fraction Convected,Fraction Replaceable,End-Use Category,Nominal Minimum Lighting Level {W},Nominal Maximum Lighting Level {W}
 Lights Internal Gains Nominal, BUILDING STORY 1 THERMALZONE FULLSERVICERESTAURANT DINING LIGHTS 1,RESTAURANTSITDOWN BLDG_LIGHT_DINING_SCH_2013,BUILDING STORY 1 THERMALZONE,1559.13,877.2,10861.685,6.966,12.382,0.000,0.700,0.200,0.100,1.000,General,0.000,10861.685
 Lights Internal Gains Nominal, BUILDING STORY 1 THERMALZONE 1 FULLSERVICERESTAURANT DINING LIGHTS 1,RESTAURANTSITDOWN BLDG_LIGHT_DINING_SCH_2013,BUILDING STORY 1 THERMALZONE 1,172.57,97.1,1202.216,6.966,12.382,0.000,0.700,0.200,0.100,1.000,General,0.000,1202.216
 Lights Internal Gains Nominal, BUILDING STORY 1 THERMALZONE 2 FULLSERVICERESTAURANT DINING LIGHTS 1,RESTAURANTSITDOWN BLDG_LIGHT_DINING_SCH_2013,BUILDING STORY 1 THERMALZONE 2,83.79,47.1,583.730,6.966,12.382,0.000,0.700,0.200,0.100,1.000,General,0.000,583.730
 Lights Internal Gains Nominal, BUILDING STORY 1 THERMALZONE 3 FULLSERVICERESTAURANT DINING LIGHTS 1,RESTAURANTSITDOWN BLDG_LIGHT_DINING_SCH_2013,BUILDING STORY 1 THERMALZONE 3,172.57,97.1,1202.216,6.966,12.382,0.000,0.700,0.200,0.100,1.000,General,0.000,1202.216
 Lights Internal Gains Nominal, BUILDING STORY 1 THERMALZONE 4 FULLSERVICERESTAURANT DINING LIGHTS 1,RESTAURANTSITDOWN BLDG_LIGHT_DINING_SCH_2013,BUILDING STORY 1 THERMALZONE 4,83.79,47.1,583.734,6.966,12.382,0.000,0.700,0.200,0.100,1.000,General,0.000,583.734
 Lights Internal Gains Nominal, BUILDING STORY 1 THERMALZONE FULLSERVICERESTAURANT KITCHEN LIGHTS 1,RESTAURANTSITDOWN BLDG_LIGHT_KITCHEN_SCH_2010_2013,BUILDING STORY 1 THERMALZONE,1559.13,877.2,5539.659,3.553,6.315,0.000,0.700,0.200,0.100,1.000,General,0.000,5539.659
 Lights Internal Gains Nominal, BUILDING STORY 1 THERMALZONE 1 FULLSERVICERESTAURANT KITCHEN LIGHTS 1,RESTAURANTSITDOWN BLDG_LIGHT_KITCHEN_SCH_2010_2013,BUILDING STORY 1 THERMALZONE 1,172.57,97.1,613.152,3.553,6.315,0.000,0.700,0.200,0.100,1.000,General,0.000,613.152
 Lights Internal Gains Nominal, BUILDING STORY 1 THERMALZONE 2 FULLSERVICERESTAURANT KITCHEN LIGHTS 1,RESTAURANTSITDOWN BLDG_LIGHT_KITCHEN_SCH_2010_2013,BUILDING STORY 1 THERMALZONE 2,83.79,47.1,297.713,3.553,6.315,0.000,0.700,0.200,0.100,1.000,General,0.000,297.713
 Lights Internal Gains Nominal, BUILDING STORY 1 THERMALZONE 3 FULLSERVICERESTAURANT KITCHEN LIGHTS 1,RESTAURANTSITDOWN BLDG_LIGHT_KITCHEN_SCH_2010_2013,BUILDING STORY 1 THERMALZONE 3,172.57,97.1,613.152,3.553,6.315,0.000,0.700,0.200,0.100,1.000,General,0.000,613.152
 Lights Internal Gains Nominal, BUILDING STORY 1 THERMALZONE 4 FULLSERVICERESTAURANT KITCHEN LIGHTS 1,RESTAURANTSITDOWN BLDG_LIGHT_KITCHEN_SCH_2010_2013,BUILDING STORY 1 THERMALZONE 4,83.79,47.1,297.715,3.553,6.315,0.000,0.700,0.200,0.100,1.000,General,0.000,297.715
! <ElectricEquipment Internal Gains Nominal>,Name,Schedule Name,Zone Name,Zone Floor Area {m2},# Zone Occupants,Equipment Level {W},Equipment/Floor Area {W/m2},Equipment per person {W/person},Fraction Latent,Fraction Radiant,Fraction Lost,Fraction Convected,End-Use SubCategory,Nominal Minimum Equipment Level {W},Nominal Maximum Equipment Level {W}
 ElectricEquipment Internal Gains Nominal, BUILDING STORY 1 THERMALZONE FULLSERVICERESTAURANT DINING ELEC EQUIP 1,RESTAURANTSITDOWN BLDG_EQUIP_SCH,BUILDING STORY 1 THERMALZONE,1559.13,877.2,73615.376,47.216,83.923,0.250,0.300,0.000,0.450,General,0.000,21348.459
 ElectricEquipment Internal Gains Nominal, BUILDING STORY 1 THERMALZONE 1 FULLSERVICERESTAURANT DINING ELEC EQUIP 1,RESTAURANTSITDOWN BLDG_EQUIP_SCH,BUILDING STORY 1 THERMALZONE 1,172.57,97.1,8148.053,47.216,83.923,0.250,0.300,0.000,0.450,General,0.000,2362.935
 ElectricEquipment Internal Gains Nominal, BUILDING STORY 1 THERMALZONE 2 FULLSERVICERESTAURANT DINING ELEC EQUIP 1,RESTAURANTSITDOWN BLDG_EQUIP_SCH,BUILDING STORY 1 THERMALZONE 2,83.79,47.1,3956.244,47.216,83.923,0.250,0.300,0.000,0.450,General,0.000,1147.311
 ElectricEquipment Internal Gains Nominal, BUILDING STORY 1 THERMALZONE 3 FULLSERVICERESTAURANT DINING ELEC EQUIP 1,RESTAURANTSITDOWN BLDG_EQUIP_SCH,BUILDING STORY 1 THERMALZONE 3,172.57,97.1,8148.053,47.216,83.923,0.250,0.300,0.000,0.450,General,0.000,2362.935
 ElectricEquipment Internal Gains Nominal, BUILDING STORY 1 THERMALZONE 4 FULLSERVICERESTAURANT DINING ELEC EQUIP 1,RESTAURANTSITDOWN BLDG_EQUIP_SCH,BUILDING STORY 1 THERMALZONE 4,83.79,47.1,3956.272,47.216,83.923,0.250,0.300,0.000,0.450,General,0.000,1147.319
 ElectricEquipment Internal Gains Nominal, BUILDING STORY 1 THERMALZONE FULLSERVICERESTAURANT KITCHEN ELEC EQUIP 1,RESTAURANTSITDOWN BLDG_EQUIP_SCH,BUILDING STORY 1 THERMALZONE,1559.13,877.2,171821.007,110.203,195.879,0.250,0.300,0.200,0.250,General,0.000,49828.092
 ElectricEquipment Internal Gains Nominal, BUILDING STORY 1 THERMALZONE 1 FULLSERVICERESTAURANT KITCHEN ELEC EQUIP 1,RESTAURANTSITDOWN BLDG_EQUIP_SCH,BUILDING STORY 1 THERMALZONE 1,172.57,97.1,19017.856,110.203,195.879,0.250,0.300,0.200,0.250,General,0.000,5515.178
 ElectricEquipment Internal Gains Nominal, BUILDING STORY 1 THERMALZONE 2 FULLSERVICERESTAURANT KITCHEN ELEC EQUIP 1,RESTAURANTSITDOWN BLDG_EQUIP_SCH,BUILDING STORY 1 THERMALZONE 2,83.79,47.1,9234.019,110.203,195.879,0.250,0.300,0.200,0.250,General,0.000,2677.866
 ElectricEquipment Internal Gains Nominal, BUILDING STORY 1 THERMALZONE 3 FULLSERVICERESTAURANT KITCHEN ELEC EQUIP 1,RESTAURANTSITDOWN BLDG_EQUIP_SCH,BUILDING STORY 1 THERMALZONE 3,172.57,97.1,19017.856,110.203,195.879,0.250,0.300,0.200,0.250,General,0.000,5515.178
 ElectricEquipment Internal Gains Nominal, BUILDING STORY 1 THERMALZONE 4 FULLSERVICERESTAURANT KITCHEN ELEC EQUIP 1,RESTAURANTSITDOWN BLDG_EQUIP_SCH,BUILDING STORY 1 THERMALZONE 4,83.79,47.1,9234.086,110.203,195.879,0.250,0.300,0.200,0.250,General,0.000,2677.885
! <GasEquipment Internal Gains Nominal>,Name,Schedule Name,Zone Name,Zone Floor Area {m2},# Zone Occupants,Equipment Level {W},Equipment/Floor Area {W/m2},Equipment per person {W/person},Fraction Latent,Fraction Radiant,Fraction Lost,Fraction Convected,End-Use SubCategory,Nominal Minimum Equipment Level {W},Nominal Maximum Equipment Level {W}
 GasEquipment Internal Gains Nominal, BUILDING STORY 1 THERMALZONE FULLSERVICERESTAURANT KITCHEN GAS EQUIP 1,RESTAURANTSITDOWN REST_GAS_EQUIP_SCH,BUILDING STORY 1 THERMALZONE,1559.13,877.2,276144.958,177.114,314.810,0.100,0.200,0.700,0.000,General,0.000,80082.038
 GasEquipment Internal Gains Nominal, BUILDING STORY 1 THERMALZONE 1 FULLSERVICERESTAURANT KITCHEN GAS EQUIP 1,RESTAURANTSITDOWN REST_GAS_EQUIP_SCH,BUILDING STORY 1 THERMALZONE 1,172.57,97.1,30564.860,177.114,314.810,0.100,0.200,0.700,0.000,General,0.000,8863.810
 GasEquipment Internal Gains Nominal, BUILDING STORY 1 THERMALZONE 2 FULLSERVICERESTAURANT KITCHEN GAS EQUIP 1,RESTAURANTSITDOWN REST_GAS_EQUIP_SCH,BUILDING STORY 1 THERMALZONE 2,83.79,47.1,14840.606,177.114,314.810,0.100,0.200,0.700,0.000,General,0.000,4303.776
 GasEquipment Internal Gains Nominal, BUILDING STORY 1 THERMALZONE 3 FULLSERVICERESTAURANT KITCHEN GAS EQUIP 1,RESTAURANTSITDOWN REST_GAS_EQUIP_SCH,BUILDING STORY 1 THERMALZONE 3,172.57,97.1,30564.860,177.114,314.810,0.100,0.200,0.700,0.000,General,0.000,8863.809
 GasEquipment Internal Gains Nominal, BUILDING STORY 1 THERMALZONE 4 FULLSERVICERESTAURANT KITCHEN GAS EQUIP 1,RESTAURANTSITDOWN REST_GAS_EQUIP_SCH,BUILDING STORY 1 THERMALZONE 4,83.79,47.1,14840.713,177.114,314.810,0.100,0.200,0.700,0.000,General,0.000,4303.807
! <Shadowing/Sun Position Calculations Annual Simulations>, Shading Calculation Method, Shading Calculation Update Frequency Method, Shading Calculation Update Frequency {days}, Maximum Figures in Shadow Overlap Calculations {}, Polygon Clipping Algorithm, Pixel Counting Resolution, Sky Diffuse Modeling Algorithm, Output External Shading Calculation Results, Disable Self-Shading Within Shading Zone Groups, Disable Self-Shading From Shading Zone Groups to Other Zones
Shadowing/Sun Position Calculations Annual Simulations,PolygonClipping,Periodic,20,15000,SutherlandHodgman,512,SimpleSkyDiffuseModeling,No,No,No
! <Zone/Window Adjacency Daylighting Counts>, Zone Name, Number of Exterior Windows, Number of Exterior Windows in Adjacent Zones
Zone/Window Adjacency Daylighting Counts, BUILDING STORY 1 THERMALZONE 1,1,0
Zone/Window Adjacency Daylighting Counts, BUILDING STORY 1 THERMALZONE 2,1,0
Zone/Window Adjacency Daylighting Counts, BUILDING STORY 1 THERMALZONE 3,1,0
Zone/Window Adjacency Daylighting Counts, BUILDING STORY 1 THERMALZONE 4,1,0
! <Zone/Window Adjacency Daylighting Matrix>, Zone Name, Number of Adjacent Zones with Windows,Adjacent Zone Names - 1st 100 (max)
Zone/Window Adjacency Daylighting Matrix, BUILDING STORY 1 THERMALZONE 1,0
Zone/Window Adjacency Daylighting Matrix, BUILDING STORY 1 THERMALZONE 2,0
Zone/Window Adjacency Daylighting Matrix, BUILDING STORY 1 THERMALZONE 3,0
Zone/Window Adjacency Daylighting Matrix, BUILDING STORY 1 THERMALZONE 4,0
! <Water Heater Information>,Type,Name,Volume {m3},Maximum Capacity {W},Standard Rated Recovery Efficiency, Standard Rated Energy Factor
! <ZoneInfiltration Airflow Stats Nominal>,Name,Schedule Name,Zone Name, Zone Floor Area {m2}, # Zone Occupants,Design Volume Flow Rate {m3/s},Volume Flow Rate/Floor Area {m3/s-m2},Volume Flow Rate/Exterior Surface Area {m3/s-m2},ACH - Air Changes per Hour,Equation A - Constant Term Coefficient {},Equation B - Temperature Term Coefficient {1/C},Equation C - Velocity Term Coefficient {s/m}, Equation D - Velocity Squared Term Coefficient {s2/m2}
 ZoneInfiltration Airflow Stats Nominal, BUILDING STORY 1 THERMALZONE FULLSERVICERESTAURANT DINING A  - STORY GROUND INFILTRATION,ALWAYS ON DISCRETE,BUILDING STORY 1 THERMALZONE,1559.13,877.2,2.939E-002,1.885E-005,1.885E-005,1.885E-002,0.000,0.000,0.224,0.000
 ZoneInfiltration Airflow Stats Nominal, BUILDING STORY 1 THERMALZONE 1 FULLSERVICERESTAURANT DINING A  - STORY GROUND INFILTRATION,ALWAYS ON DISCRETE,BUILDING STORY 1 THERMALZONE 1,172.57,97.1,7.586E-003,4.396E-005,1.885E-005,4.396E-002,0.000,0.000,0.224,0.000
 ZoneInfiltration Airflow Stats Nominal, BUILDING STORY 1 THERMALZONE 2 FULLSERVICERESTAURANT DINING A  - STORY GROUND INFILTRATION,ALWAYS ON DISCRETE,BUILDING STORY 1 THERMALZONE 2,83.79,47.1,3.782E-003,4.514E-005,1.885E-005,4.514E-002,0.000,0.000,0.224,0.000
 ZoneInfiltration Airflow Stats Nominal, BUILDING STORY 1 THERMALZONE 3 FULLSERVICERESTAURANT DINING A  - STORY GROUND INFILTRATION,ALWAYS ON DISCRETE,BUILDING STORY 1 THERMALZONE 3,172.57,97.1,7.586E-003,4.396E-005,1.885E-005,4.396E-002,0.000,0.000,0.224,0.000
 ZoneInfiltration Airflow Stats Nominal, BUILDING STORY 1 THERMALZONE 4 FULLSERVICERESTAURANT DINING A  - STORY GROUND INFILTRATION,ALWAYS ON DISCRETE,BUILDING STORY 1 THERMALZONE 4,83.79,47.1,3.782E-003,4.514E-005,1.885E-005,4.514E-002,0.000,0.000,0.224,0.000
 ZoneInfiltration Airflow Stats Nominal, BUILDING STORY 1 THERMALZONE FULLSERVICERESTAURANT DINING A END_A - STORY GROUND INFILTRATION,ALWAYS ON DISCRETE,BUILDING STORY 1 THERMALZONE,1559.13,877.2,9.418E-003,6.040E-006,6.040E-006,6.040E-003,0.000,0.000,0.224,0.000
 ZoneInfiltration Airflow Stats Nominal, BUILDING STORY 1 THERMALZONE 1 FULLSERVICERESTAURANT DINING A END_A - STORY GROUND INFILTRATION,ALWAYS ON DISCRETE,BUILDING STORY 1 THERMALZONE 1,172.57,97.1,2.431E-003,1.409E-005,6.040E-006,1.409E-002,0.000,0.000,0.224,0.000
 ZoneInfiltration Airflow Stats Nominal, BUILDING STORY 1 THERMALZONE 2 FULLSERVICERESTAURANT DINING A END_A - STORY GROUND INFILTRATION,ALWAYS ON DISCRETE,BUILDING STORY 1 THERMALZONE 2,83.79,47.1,1.212E-003,1.446E-005,6.040E-006,1.446E-002,0.000,0.000,0.224,0.000
 ZoneInfiltration Airflow Stats Nominal, BUILDING STORY 1 THERMALZONE 3 FULLSERVICERESTAURANT DINING A END_A - STORY GROUND INFILTRATION,ALWAYS ON DISCRETE,BUILDING STORY 1 THERMALZONE 3,172.57,97.1,2.431E-003,1.409E-005,6.040E-006,1.409E-002,0.000,0.000,0.224,0.000
 ZoneInfiltration Airflow Stats Nominal, BUILDING STORY 1 THERMALZONE 4 FULLSERVICERESTAURANT DINING A END_A - STORY GROUND INFILTRATION,ALWAYS ON DISCRETE,BUILDING STORY 1 THERMALZONE 4,83.79,47.1,1.212E-003,1.446E-005,6.040E-006,1.446E-002,0.000,0.000,0.224,0.000
 ZoneInfiltration Airflow Stats Nominal, BUILDING STORY 1 THERMALZONE FULLSERVICERESTAURANT DINING B END_A - STORY GROUND INFILTRATION,ALWAYS ON DISCRETE,BUILDING STORY 1 THERMALZONE,1559.13,877.2,3.748E-002,2.404E-005,2.404E-005,2.404E-002,0.000,0.000,0.224,0.000
 ZoneInfiltration Airflow Stats Nominal, BUILDING STORY 1 THERMALZONE 1 FULLSERVICERESTAURANT DINING B END_A - STORY GROUND INFILTRATION,ALWAYS ON DISCRETE,BUILDING STORY 1 THERMALZONE 1,172.57,97.1,9.672E-003,5.605E-005,2.404E-005,5.605E-002,0.000,0.000,0.224,0.000
 ZoneInfiltration Airflow Stats Nominal, BUILDING STORY 1 THERMALZONE 2 FULLSERVICERESTAURANT DINING B END_A - STORY GROUND INFILTRATION,ALWAYS ON DISCRETE,BUILDING STORY 1 THERMALZONE 2,83.79,47.1,4.822E-003,5.755E-005,2.404E-005,5.755E-002,0.000,0.000,0.224,0.000
 ZoneInfiltration Airflow Stats Nominal, BUILDING STORY 1 THERMALZONE 3 FULLSERVICERESTAURANT DINING B END_A - STORY GROUND INFILTRATION,ALWAYS ON DISCRETE,BUILDING STORY 1 THERMALZONE 3,172.57,97.1,9.672E-003,5.605E-005,2.404E-005,5.605E-002,0.000,0.000,0.224,0.000
 ZoneInfiltration Airflow Stats Nominal, BUILDING STORY 1 THERMALZONE 4 FULLSERVICERESTAURANT DINING B END_A - STORY GROUND INFILTRATION,ALWAYS ON DISCRETE,BUILDING STORY 1 THERMALZONE 4,83.79,47.1,4.822E-003,5.755E-005,2.404E-005,5.755E-002,0.000,0.000,0.224,0.000
 ZoneInfiltration Airflow Stats Nominal, BUILDING STORY 1 THERMALZONE FULLSERVICERESTAURANT DINING C  - STORY GROUND INFILTRATION,ALWAYS ON DISCRETE,BUILDING STORY 1 THERMALZONE,1559.13,877.2,2.939E-002,1.885E-005,1.885E-005,1.885E-002,0.000,0.000,0.224,0.000
 ZoneInfiltration Airflow Stats Nominal, BUILDING STORY 1 THERMALZONE 1 FULLSERVICERESTAURANT DINING C  - STORY GROUND INFILTRATION,ALWAYS ON DISCRETE,BUILDING STORY 1 THERMALZONE 1,172.57,97.1,7.586E-003,4.396E-005,1.885E-005,4.396E-002,0.000,0.000,0.224,0.000
 ZoneInfiltration Airflow Stats Nominal, BUILDING STORY 1 THERMALZONE 2 FULLSERVICERESTAURANT DINING C  - STORY GROUND INFILTRATION,ALWAYS ON DISCRETE,BUILDING STORY 1 THERMALZONE 2,83.79,47.1,3.782E-003,4.514E-005,1.885E-005,4.514E-002,0.000,0.000,0.224,0.000
 ZoneInfiltration Airflow Stats Nominal, BUILDING STORY 1 THERMALZONE 3 FULLSERVICERESTAURANT DINING C  - STORY GROUND INFILTRATION,ALWAYS ON DISCRETE,BUILDING STORY 1 THERMALZONE 3,172.57,97.1,7.586E-003,4.396E-005,1.885E-005,4.396E-002,0.000,0.000,0.224,0.000
 ZoneInfiltration Airflow Stats Nominal, BUILDING STORY 1 THERMALZONE 4 FULLSERVICERESTAURANT DINING C  - STORY GROUND INFILTRATION,ALWAYS ON DISCRETE,BUILDING STORY 1 THERMALZONE 4,83.79,47.1,3.782E-003,4.514E-005,1.885E-005,4.514E-002,0.000,0.000,0.224,0.000
 ZoneInfiltration Airflow Stats Nominal, BUILDING STORY 1 THERMALZONE FULLSERVICERESTAURANT DINING C END_A - STORY GROUND INFILTRATION,ALWAYS ON DISCRETE,BUILDING STORY 1 THERMALZONE,1559.13,877.2,9.418E-003,6.040E-006,6.040E-006,6.040E-003,0.000,0.000,0.224,0.000
 ZoneInfiltration Airflow Stats Nominal, BUILDING STORY 1 THERMALZONE 1 FULLSERVICERESTAURANT DINING C END_A - STORY GROUND INFILTRATION,ALWAYS ON DISCRETE,BUILDING STORY 1 THERMALZONE 1,172.57,97.1,2.431E-003,1.409E-005,6.040E-006,1.409E-002,0.000,0.000,0.224,0.000
 ZoneInfiltration Airflow Stats Nominal, BUILDING STORY 1 THERMALZONE 2 FULLSERVICERESTAURANT DINING C END_A - STORY GROUND INFILTRATION,ALWAYS ON DISCRETE,BUILDING STORY 1 THERMALZONE 2,83.79,47.1,1.212E-003,1.446E-005,6.040E-006,1.446E-002,0.000,0.000,0.224,0.000
 ZoneInfiltration Airflow Stats Nominal, BUILDING STORY 1 THERMALZONE 3 FULLSERVICERESTAURANT DINING C END_A - STORY GROUND INFILTRATION,ALWAYS ON DISCRETE,BUILDING STORY 1 THERMALZONE 3,172.57,97.1,2.431E-003,1.409E-005,6.040E-006,1.409E-002,0.000,0.000,0.224,0.000
 ZoneInfiltration Airflow Stats Nominal, BUILDING STORY 1 THERMALZONE 4 FULLSERVICERESTAURANT DINING C END_A - STORY GROUND INFILTRATION,ALWAYS ON DISCRETE,BUILDING STORY 1 THERMALZONE 4,83.79,47.1,1.212E-003,1.446E-005,6.040E-006,1.446E-002,0.000,0.000,0.224,0.000
 ZoneInfiltration Airflow Stats Nominal, BUILDING STORY 1 THERMALZONE FULLSERVICERESTAURANT KITCHEN A  - STORY GROUND INFILTRATION,ALWAYS ON DISCRETE,BUILDING STORY 1 THERMALZONE,1559.13,877.2,8.084E-003,5.185E-006,5.185E-006,5.185E-003,0.000,0.000,0.224,0.000
 ZoneInfiltration Airflow Stats Nominal, BUILDING STORY 1 THERMALZONE 1 FULLSERVICERESTAURANT KITCHEN A  - STORY GROUND INFILTRATION,ALWAYS ON DISCRETE,BUILDING STORY 1 THERMALZONE 1,172.57,97.1,2.086E-003,1.209E-005,5.185E-006,1.209E-002,0.000,0.000,0.224,0.000
 ZoneInfiltration Airflow Stats Nominal, BUILDING STORY 1 THERMALZONE 2 FULLSERVICERESTAURANT KITCHEN A  - STORY GROUND INFILTRATION,ALWAYS ON DISCRETE,BUILDING STORY 1 THERMALZONE 2,83.79,47.1,1.040E-003,1.241E-005,5.185E-006,1.241E-002,0.000,0.000,0.224,0.000
 ZoneInfiltration Airflow Stats Nominal, BUILDING STORY 1 THERMALZONE 3 FULLSERVICERESTAURANT KITCHEN A  - STORY GROUND INFILTRATION,ALWAYS ON DISCRETE,BUILDING STORY 1 THERMALZONE 3,172.57,97.1,2.086E-003,1.209E-005,5.185E-006,1.209E-002,0.000,0.000,0.224,0.000
 ZoneInfiltration Airflow Stats Nominal, BUILDING STORY 1 THERMALZONE 4 FULLSERVICERESTAURANT KITCHEN A  - STORY GROUND INFILTRATION,ALWAYS ON DISCRETE,BUILDING STORY 1 THERMALZONE 4,83.79,47.1,1.040E-003,1.241E-005,5.185E-006,1.241E-002,0.000,0.000,0.224,0.000
 ZoneInfiltration Airflow Stats Nominal, BUILDING STORY 1 THERMALZONE FULLSERVICERESTAURANT KITCHEN A END_B - STORY GROUND INFILTRATION,ALWAYS ON DISCRETE,BUILDING STORY 1 THERMALZONE,1559.13,877.2,9.418E-003,6.040E-006,6.040E-006,6.040E-003,0.000,0.000,0.224,0.000
 ZoneInfiltration Airflow Stats Nominal, BUILDING STORY 1 THERMALZONE 1 FULLSERVICERESTAURANT KITCHEN A END_B - STORY GROUND INFILTRATION,ALWAYS ON DISCRETE,BUILDING STORY 1 THERMALZONE 1,172.57,97.1,2.431E-003,1.409E-005,6.040E-006,1.409E-002,0.000,0.000,0.224,0.000
 ZoneInfiltration Airflow Stats Nominal, BUILDING STORY 1 THERMALZONE 2 FULLSERVICERESTAURANT KITCHEN A END_B - STORY GROUND INFILTRATION,ALWAYS ON DISCRETE,BUILDING STORY 1 THERMALZONE 2,83.79,47.1,1.212E-003,1.446E-005,6.040E-006,1.446E-002,0.000,0.000,0.224,0.000
 ZoneInfiltration Airflow Stats Nominal, BUILDING STORY 1 THERMALZONE 3 FULLSERVICERESTAURANT KITCHEN A END_B - STORY GROUND INFILTRATION,ALWAYS ON DISCRETE,BUILDING STORY 1 THERMALZONE 3,172.57,97.1,2.431E-003,1.409E-005,6.040E-006,1.409E-002,0.000,0.000,0.224,0.000
 ZoneInfiltration Airflow Stats Nominal, BUILDING STORY 1 THERMALZONE 4 FULLSERVICERESTAURANT KITCHEN A END_B - STORY GROUND INFILTRATION,ALWAYS ON DISCRETE,BUILDING STORY 1 THERMALZONE 4,83.79,47.1,1.212E-003,1.446E-005,6.040E-006,1.446E-002,0.000,0.000,0.224,0.000
 ZoneInfiltration Airflow Stats Nominal, BUILDING STORY 1 THERMALZONE FULLSERVICERESTAURANT KITCHEN B END_B - STORY GROUND INFILTRATION,ALWAYS ON DISCRETE,BUILDING STORY 1 THERMALZONE,1559.13,877.2,3.748E-002,2.404E-005,2.404E-005,2.404E-002,0.000,0.000,0.224,0.000
 ZoneInfiltration Airflow Stats Nominal, BUILDING STORY 1 THERMALZONE 1 FULLSERVICERESTAURANT KITCHEN B END_B - STORY GROUND INFILTRATION,ALWAYS ON DISCRETE,BUILDING STORY 1 THERMALZONE 1,172.57,97.1,9.672E-003,5.605E-005,2.404E-005,5.605E-002,0.000,0.000,0.224,0.000
 ZoneInfiltration Airflow Stats Nominal, BUILDING STORY 1 THERMALZONE 2 FULLSERVICERESTAURANT KITCHEN B END_B - STORY GROUND INFILTRATION,ALWAYS ON DISCRETE,BUILDING STORY 1 THERMALZONE 2,83.79,47.1,4.822E-003,5.755E-005,2.404E-005,5.755E-002,0.000,0.000,0.224,0.000
 ZoneInfiltration Airflow Stats Nominal, BUILDING STORY 1 THERMALZONE 3 FULLSERVICERESTAURANT KITCHEN B END_B - STORY GROUND INFILTRATION,ALWAYS ON DISCRETE,BUILDING STORY 1 THERMALZONE 3,172.57,97.1,9.672E-003,5.605E-005,2.404E-005,5.605E-002,0.000,0.000,0.224,0.000
 ZoneInfiltration Airflow Stats Nominal, BUILDING STORY 1 THERMALZONE 4 FULLSERVICERESTAURANT KITCHEN B END_B - STORY GROUND INFILTRATION,ALWAYS ON DISCRETE,BUILDING STORY 1 THERMALZONE 4,83.79,47.1,4.822E-003,5.755E-005,2.404E-005,5.755E-002,0.000,0.000,0.224,0.000
 ZoneInfiltration Airflow Stats Nominal, BUILDING STORY 1 THERMALZONE FULLSERVICERESTAURANT KITCHEN C  - STORY GROUND INFILTRATION,ALWAYS ON DISCRETE,BUILDING STORY 1 THERMALZONE,1559.13,877.2,8.084E-003,5.185E-006,5.185E-006,5.185E-003,0.000,0.000,0.224,0.000
 ZoneInfiltration Airflow Stats Nominal, BUILDING STORY 1 THERMALZONE 1 FULLSERVICERESTAURANT KITCHEN C  - STORY GROUND INFILTRATION,ALWAYS ON DISCRETE,BUILDING STORY 1 THERMALZONE 1,172.57,97.1,2.086E-003,1.209E-005,5.185E-006,1.209E-002,0.000,0.000,0.224,0.000
 ZoneInfiltration Airflow Stats Nominal, BUILDING STORY 1 THERMALZONE 2 FULLSERVICERESTAURANT KITCHEN C  - STORY GROUND INFILTRATION,ALWAYS ON DISCRETE,BUILDING STORY 1 THERMALZONE 2,83.79,47.1,1.040E-003,1.241E-005,5.185E-006,1.241E-002,0.000,0.000,0.224,0.000
 ZoneInfiltration Airflow Stats Nominal, BUILDING STORY 1 THERMALZONE 3 FULLSERVICERESTAURANT KITCHEN C  - STORY GROUND INFILTRATION,ALWAYS ON DISCRETE,BUILDING STORY 1 THERMALZONE 3,172.57,97.1,2.086E-003,1.209E-005,5.185E-006,1.209E-002,0.000,0.000,0.224,0.000
 ZoneInfiltration Airflow Stats Nominal, BUILDING STORY 1 THERMALZONE 4 FULLSERVICERESTAURANT KITCHEN C  - STORY GROUND INFILTRATION,ALWAYS ON DISCRETE,BUILDING STORY 1 THERMALZONE 4,83.79,47.1,1.040E-003,1.241E-005,5.185E-006,1.241E-002,0.000,0.000,0.224,0.000
 ZoneInfiltration Airflow Stats Nominal, BUILDING STORY 1 THERMALZONE FULLSERVICERESTAURANT KITCHEN C END_B - STORY GROUND INFILTRATION,ALWAYS ON DISCRETE,BUILDING STORY 1 THERMALZONE,1559.13,877.2,9.418E-003,6.040E-006,6.040E-006,6.040E-003,0.000,0.000,0.224,0.000
 ZoneInfiltration Airflow Stats Nominal, BUILDING STORY 1 THERMALZONE 1 FULLSERVICERESTAURANT KITCHEN C END_B - STORY GROUND INFILTRATION,ALWAYS ON DISCRETE,BUILDING STORY 1 THERMALZONE 1,172.57,97.1,2.431E-003,1.409E-005,6.040E-006,1.409E-002,0.000,0.000,0.224,0.000
 ZoneInfiltration Airflow Stats Nominal, BUILDING STORY 1 THERMALZONE 2 FULLSERVICERESTAURANT KITCHEN C END_B - STORY GROUND INFILTRATION,ALWAYS ON DISCRETE,BUILDING STORY 1 THERMALZONE 2,83.79,47.1,1.212E-003,1.446E-005,6.040E-006,1.446E-002,0.000,0.000,0.224,0.000
 ZoneInfiltration Airflow Stats Nominal, BUILDING STORY 1 THERMALZONE 3 FULLSERVICERESTAURANT KITCHEN C END_B - STORY GROUND INFILTRATION,ALWAYS ON DISCRETE,BUILDING STORY 1 THERMALZONE 3,172.57,97.1,2.431E-003,1.409E-005,6.040E-006,1.409E-002,0.000,0.000,0.224,0.000
 ZoneInfiltration Airflow Stats Nominal, BUILDING STORY 1 THERMALZONE 4 FULLSERVICERESTAURANT KITCHEN C END_B - STORY GROUND INFILTRATION,ALWAYS ON DISCRETE,BUILDING STORY 1 THERMALZONE 4,83.79,47.1,1.212E-003,1.446E-005,6.040E-006,1.446E-002,0.000,0.000,0.224,0.000
! <AirFlow Model>, Simple
 AirFlow Model, Simple
! <RoomAir Model>, Zone Name, Mixing/Mundt/UCSDDV/UCSDCV/UCSDUFI/UCSDUFE/User Defined
RoomAir Model,BUILDING STORY 1 THERMALZONE,Mixing/Well-Stirred
RoomAir Model,BUILDING STORY 1 THERMALZONE 1,Mixing/Well-Stirred
RoomAir Model,BUILDING STORY 1 THERMALZONE 2,Mixing/Well-Stirred
RoomAir Model,BUILDING STORY 1 THERMALZONE 3,Mixing/Well-Stirred
RoomAir Model,BUILDING STORY 1 THERMALZONE 4,Mixing/Well-Stirred
! <AirflowNetwork Model:Control>, No Multizone or Distribution/Multizone with Distribution/Multizone without Distribution/Multizone with Distribution only during Fan Operation
AirflowNetwork Model:Control,NoMultizoneOrDistribution
! <Zone Volume Capacitance Multiplier>, Sensible Heat Capacity Multiplier, Moisture Capacity Multiplier, Carbon Dioxide Capacity Multiplier, Generic Contaminant Capacity Multiplier
Zone Volume Capacitance Multiplier,   1.000 ,   1.000,   1.000,   1.000
! <Load Timesteps in Zone Design Calculation Averaging Window>, Value
 Load Timesteps in Zone Design Calculation Averaging Window,    1
! <Heating Sizing Factor Information>, Sizing Factor ID, Value
 Heating Sizing Factor Information, Global,   1.2500
 Heating Sizing Factor Information, Zone BUILDING STORY 1 THERMALZONE,   1.2500
 Heating Sizing Factor Information, Zone BUILDING STORY 1 THERMALZONE 1,   1.2500
 Heating Sizing Factor Information, Zone BUILDING STORY 1 THERMALZONE 2,   1.2500
 Heating Sizing Factor Information, Zone BUILDING STORY 1 THERMALZONE 3,   1.2500
 Heating Sizing Factor Information, Zone BUILDING STORY 1 THERMALZONE 4,   1.2500
! <Cooling Sizing Factor Information>, Sizing Factor ID, Value
 Cooling Sizing Factor Information, Global,   1.1500
 Cooling Sizing Factor Information, Zone BUILDING STORY 1 THERMALZONE,   1.1500
 Cooling Sizing Factor Information, Zone BUILDING STORY 1 THERMALZONE 1,   1.1500
 Cooling Sizing Factor Information, Zone BUILDING STORY 1 THERMALZONE 2,   1.1500
 Cooling Sizing Factor Information, Zone BUILDING STORY 1 THERMALZONE 3,   1.1500
 Cooling Sizing Factor Information, Zone BUILDING STORY 1 THERMALZONE 4,   1.1500
! <Sky Daylight Factors>, MonthAndDay, Zone Name, Window Name, Reference Point, Daylight Factor
 Sky Daylight Factors,Clear Sky,07/21,BUILDING STORY 1 THERMALZONE 1,SUB SURFACE 1,BUILDING STORY 1 SPACE 1 DAYLT SENSOR 1,0.0000
 Sky Daylight Factors,Clear Sky,07/21,BUILDING STORY 1 THERMALZONE 1,SUB SURFACE 1,BUILDING STORY 1 SPACE 1 DAYLT SENSOR 2,0.0000
 Sky Daylight Factors,Clear Turbid Sky,07/21,BUILDING STORY 1 THERMALZONE 1,SUB SURFACE 1,BUILDING STORY 1 SPACE 1 DAYLT SENSOR 1,0.0000
 Sky Daylight Factors,Clear Turbid Sky,07/21,BUILDING STORY 1 THERMALZONE 1,SUB SURFACE 1,BUILDING STORY 1 SPACE 1 DAYLT SENSOR 2,0.0000
 Sky Daylight Factors,Intermediate Sky,07/21,BUILDING STORY 1 THERMALZONE 1,SUB SURFACE 1,BUILDING STORY 1 SPACE 1 DAYLT SENSOR 1,0.0000
 Sky Daylight Factors,Intermediate Sky,07/21,BUILDING STORY 1 THERMALZONE 1,SUB SURFACE 1,BUILDING STORY 1 SPACE 1 DAYLT SENSOR 2,0.0000
 Sky Daylight Factors,Overcast Sky,07/21,BUILDING STORY 1 THERMALZONE 1,SUB SURFACE 1,BUILDING STORY 1 SPACE 1 DAYLT SENSOR 1,0.0000
 Sky Daylight Factors,Overcast Sky,07/21,BUILDING STORY 1 THERMALZONE 1,SUB SURFACE 1,BUILDING STORY 1 SPACE 1 DAYLT SENSOR 2,0.0000
 Sky Daylight Factors,Clear Sky,07/21,BUILDING STORY 1 THERMALZONE 2,SUB SURFACE 2,BUILDING STORY 1 SPACE 2 DAYLT SENSOR 1,1.3702E-004
 Sky Daylight Factors,Clear Sky,07/21,BUILDING STORY 1 THERMALZONE 2,SUB SURFACE 2,BUILDING STORY 1 SPACE 2 DAYLT SENSOR 2,2.9374E-004
 Sky Daylight Factors,Clear Turbid Sky,07/21,BUILDING STORY 1 THERMALZONE 2,SUB SURFACE 2,BUILDING STORY 1 SPACE 2 DAYLT SENSOR 1,1.0799E-004
 Sky Daylight Factors,Clear Turbid Sky,07/21,BUILDING STORY 1 THERMALZONE 2,SUB SURFACE 2,BUILDING STORY 1 SPACE 2 DAYLT SENSOR 2,2.2773E-004
 Sky Daylight Factors,Intermediate Sky,07/21,BUILDING STORY 1 THERMALZONE 2,SUB SURFACE 2,BUILDING STORY 1 SPACE 2 DAYLT SENSOR 1,5.7947E-005
 Sky Daylight Factors,Intermediate Sky,07/21,BUILDING STORY 1 THERMALZONE 2,SUB SURFACE 2,BUILDING STORY 1 SPACE 2 DAYLT SENSOR 2,1.0777E-004
 Sky Daylight Factors,Overcast Sky,07/21,BUILDING STORY 1 THERMALZONE 2,SUB SURFACE 2,BUILDING STORY 1 SPACE 2 DAYLT SENSOR 1,8.7941E-005
 Sky Daylight Factors,Overcast Sky,07/21,BUILDING STORY 1 THERMALZONE 2,SUB SURFACE 2,BUILDING STORY 1 SPACE 2 DAYLT SENSOR 2,1.7273E-004
 Sky Daylight Factors,Clear Sky,07/21,BUILDING STORY 1 THERMALZONE 3,SUB SURFACE 3,BUILDING STORY 1 SPACE 3 DAYLT SENSOR 1,3.6727E-002
 Sky Daylight Factors,Clear Sky,07/21,BUILDING STORY 1 THERMALZONE 3,SUB SURFACE 3,BUILDING STORY 1 SPACE 3 DAYLT SENSOR 2,1.7875E-002
 Sky Daylight Factors,Clear Turbid Sky,07/21,BUILDING STORY 1 THERMALZONE 3,SUB SURFACE 3,BUILDING STORY 1 SPACE 3 DAYLT SENSOR 1,3.2812E-002
 Sky Daylight Factors,Clear Turbid Sky,07/21,BUILDING STORY 1 THERMALZONE 3,SUB SURFACE 3,BUILDING STORY 1 SPACE 3 DAYLT SENSOR 2,1.5570E-002
 Sky Daylight Factors,Intermediate Sky,07/21,BUILDING STORY 1 THERMALZONE 3,SUB SURFACE 3,BUILDING STORY 1 SPACE 3 DAYLT SENSOR 1,2.6829E-002
 Sky Daylight Factors,Intermediate Sky,07/21,BUILDING STORY 1 THERMALZONE 3,SUB SURFACE 3,BUILDING STORY 1 SPACE 3 DAYLT SENSOR 2,1.1661E-002
 Sky Daylight Factors,Overcast Sky,07/21,BUILDING STORY 1 THERMALZONE 3,SUB SURFACE 3,BUILDING STORY 1 SPACE 3 DAYLT SENSOR 1,3.0378E-002
 Sky Daylight Factors,Overcast Sky,07/21,BUILDING STORY 1 THERMALZONE 3,SUB SURFACE 3,BUILDING STORY 1 SPACE 3 DAYLT SENSOR 2,1.2710E-002
 Sky Daylight Factors,Clear Sky,07/21,BUILDING STORY 1 THERMALZONE 4,SUB SURFACE 4,BUILDING STORY 1 SPACE 4 DAYLT SENSOR 1,1.5160E-002
 Sky Daylight Factors,Clear Sky,07/21,BUILDING STORY 1 THERMALZONE 4,SUB SURFACE 4,BUILDING STORY 1 SPACE 4 DAYLT SENSOR 2,9.8238E-003
 Sky Daylight Factors,Clear Turbid Sky,07/21,BUILDING STORY 1 THERMALZONE 4,SUB SURFACE 4,BUILDING STORY 1 SPACE 4 DAYLT SENSOR 1,1.4512E-002
 Sky Daylight Factors,Clear Turbid Sky,07/21,BUILDING STORY 1 THERMALZONE 4,SUB SURFACE 4,BUILDING STORY 1 SPACE 4 DAYLT SENSOR 2,9.5352E-003
 Sky Daylight Factors,Intermediate Sky,07/21,BUILDING STORY 1 THERMALZONE 4,SUB SURFACE 4,BUILDING STORY 1 SPACE 4 DAYLT SENSOR 1,1.1864E-002
 Sky Daylight Factors,Intermediate Sky,07/21,BUILDING STORY 1 THERMALZONE 4,SUB SURFACE 4,BUILDING STORY 1 SPACE 4 DAYLT SENSOR 2,7.8431E-003
 Sky Daylight Factors,Overcast Sky,07/21,BUILDING STORY 1 THERMALZONE 4,SUB SURFACE 4,BUILDING STORY 1 SPACE 4 DAYLT SENSOR 1,9.4245E-003
 Sky Daylight Factors,Overcast Sky,07/21,BUILDING STORY 1 THERMALZONE 4,SUB SURFACE 4,BUILDING STORY 1 SPACE 4 DAYLT SENSOR 2,6.0625E-003
! <Zone Sizing Information>, Zone Name, Load Type, Calc Des Load {W}, User Des Load {W}, Calc Des Air Flow Rate {m3/s}, User Des Air Flow Rate {m3/s}, Design Day Name, Date/Time of Peak, Temperature at Peak {C}, Humidity Ratio at Peak {kgWater/kgDryAir}, Floor Area {m2}, # Occupants, Calc Outdoor Air Flow Rate {m3/s}, Calc DOAS Heat Addition Rate {W}
 Zone Sizing Information, BUILDING STORY 1 THERMALZONE, Cooling, 132581.39867, 152468.60847, 9.88959, 11.37302, BUFFALO NIAGARA INTL AP ANN CLG .4% CONDNS DB=>MWB 1, 7/21 10:00:00, 26.76600, 1.33607E-002, 1559.13333, 877.18099, 4.53055, 0.00000
 Zone Sizing Information, BUILDING STORY 1 THERMALZONE, Heating, 17612.42166, 22015.52708, 0.50732, 4.53055, BUFFALO NIAGARA INTL AP ANN HTG 99.6% CONDNS DB 1, 1/21 24:00:00, -16.30000, 9.24091E-004, 1559.13333, 877.18099, 4.53055, 0.00000
 Zone Sizing Information, BUILDING STORY 1 THERMALZONE 1, Cooling, 27562.94823, 31697.39046, 2.05365, 2.36170, BUFFALO NIAGARA INTL AP ANN CLG .4% CONDNS DB=>MWB 1, 7/21 17:00:00, 28.99800, 1.33646E-002, 172.57129, 97.09000, 0.50146, 0.00000
 Zone Sizing Information, BUILDING STORY 1 THERMALZONE 1, Heating, 9045.28490, 11306.60613, 0.26054, 0.50146, BUFFALO NIAGARA INTL AP ANN HTG 99.6% CONDNS DB 1, 1/21 24:00:00, -16.30000, 9.24091E-004, 172.57129, 97.09000, 0.50146, 0.00000
 Zone Sizing Information, BUILDING STORY 1 THERMALZONE 2, Cooling, 9128.64749, 10497.94461, 0.68015, 0.78217, BUFFALO NIAGARA INTL AP ANN CLG .4% CONDNS DB=>MWB 1, 7/21 18:00:00, 28.06800, 1.33630E-002, 83.79108, 47.14154, 0.24348, 0.00000
 Zone Sizing Information, BUILDING STORY 1 THERMALZONE 2, Heating, 4557.82877, 5697.28597, 0.13128, 0.24348, BUFFALO NIAGARA INTL AP ANN HTG 99.6% CONDNS DB 1, 1/21 24:00:00, -16.30000, 9.24091E-004, 83.79108, 47.14154, 0.24348, 0.00000
 Zone Sizing Information, BUILDING STORY 1 THERMALZONE 3, Cooling, 29828.17253, 34302.39841, 2.22076, 2.55388, BUFFALO NIAGARA INTL AP ANN CLG .4% CONDNS DB=>MWB 1, 7/21 09:00:00, 25.18500, 1.33579E-002, 172.57129, 97.09000, 0.50146, 0.00000
 Zone Sizing Information, BUILDING STORY 1 THERMALZONE 3, Heating, 9061.28358, 11326.60447, 0.26100, 0.50146, BUFFALO NIAGARA INTL AP ANN HTG 99.6% CONDNS DB 1, 1/21 24:00:00, -16.30000, 9.24091E-004, 172.57129, 97.09000, 0.50146, 0.00000
 Zone Sizing Information, BUILDING STORY 1 THERMALZONE 4, Cooling, 11262.82458, 12952.24826, 0.83898, 0.96482, BUFFALO NIAGARA INTL AP ANN CLG .4% CONDNS DB=>MWB 1, 7/21 12:00:00, 29.09100, 1.33648E-002, 83.79168, 47.14188, 0.24348, 0.00000
 Zone Sizing Information, BUILDING STORY 1 THERMALZONE 4, Heating, 4566.00300, 5707.50375, 0.13152, 0.24348, BUFFALO NIAGARA INTL AP ANN HTG 99.6% CONDNS DB 1, 1/21 24:00:00, -16.30000, 9.24091E-004, 83.79168, 47.14188, 0.24348, 0.00000
! <System Sizing Information>, System Name, Load Type, Peak Load Kind, User Design Capacity, Calc Des Air Flow Rate [m3/s], User Des Air Flow Rate [m3/s], Design Day Name, Date/Time of Peak
 System Sizing Information, BUILDING STORY 1 THERMALZONE 1 PSZ-AC, Cooling, Sensible, 34175.87, 2.36170, 2.36170, BUFFALO NIAGARA INTL AP ANN CLG .4% CONDNS DB=>MWB 1, 7/21 05:00:00
 System Sizing Information, BUILDING STORY 1 THERMALZONE 1 PSZ-AC, Heating, Sensible, 39218.85, 0.50146, 0.50146, BUFFALO NIAGARA INTL AP ANN HTG 99.6% CONDNS DB 1, 1/21 01:00:00
 System Sizing Information, BUILDING STORY 1 THERMALZONE 2 PSZ-AC, Cooling, Sensible, 11509.86, 0.78217, 0.78217, BUFFALO NIAGARA INTL AP ANN CLG .4% CONDNS DB=>MWB 1, 7/21 05:00:00
 System Sizing Information, BUILDING STORY 1 THERMALZONE 2 PSZ-AC, Heating, Sensible, 19042.50, 0.24348, 0.24348, BUFFALO NIAGARA INTL AP ANN HTG 99.6% CONDNS DB 1, 1/21 01:00:00
 System Sizing Information, BUILDING STORY 1 THERMALZONE 3 PSZ-AC, Cooling, Sensible, 34480.09, 2.55388, 2.55388, BUFFALO NIAGARA INTL AP ANN CLG .4% CONDNS DB=>MWB 1, 7/21 05:00:00
 System Sizing Information, BUILDING STORY 1 THERMALZONE 3 PSZ-AC, Heating, Sensible, 39218.85, 0.50146, 0.50146, BUFFALO NIAGARA INTL AP ANN HTG 99.6% CONDNS DB 1, 1/21 01:00:00
 System Sizing Information, BUILDING STORY 1 THERMALZONE 4 PSZ-AC, Cooling, Sensible, 14219.34, 0.96482, 0.96482, BUFFALO NIAGARA INTL AP ANN CLG .4% CONDNS DB=>MWB 1, 7/21 05:00:00
 System Sizing Information, BUILDING STORY 1 THERMALZONE 4 PSZ-AC, Heating, Sensible, 19042.64, 0.24348, 0.24348, BUFFALO NIAGARA INTL AP ANN HTG 99.6% CONDNS DB 1, 1/21 01:00:00
 System Sizing Information, BUILDING STORY 1 THERMALZONE PSZ-AC, Cooling, Sensible, 172952.88, 11.37302, 11.37302, BUFFALO NIAGARA INTL AP ANN CLG .4% CONDNS DB=>MWB 1, 7/21 05:00:00
 System Sizing Information, BUILDING STORY 1 THERMALZONE PSZ-AC, Heating, Sensible, 354331.31, 4.53055, 4.53055, BUFFALO NIAGARA INTL AP ANN HTG 99.6% CONDNS DB 1, 1/21 13:00:00
! <Component Sizing Information>, Component Type, Component Name, Input Field Description, Value
 Component Sizing Information, AirTerminal:SingleDuct:ConstantVolume:NoReheat, BUILDING STORY 1 THERMALZONE PSZ-AC DIFFUSER, Design Size Maximum Air Flow Rate [m3/s], 11.37302
 Component Sizing Information, AirTerminal:SingleDuct:ConstantVolume:NoReheat, BUILDING STORY 1 THERMALZONE 1 PSZ-AC DIFFUSER, Design Size Maximum Air Flow Rate [m3/s], 2.36170
 Component Sizing Information, AirTerminal:SingleDuct:ConstantVolume:NoReheat, BUILDING STORY 1 THERMALZONE 2 PSZ-AC DIFFUSER, Design Size Maximum Air Flow Rate [m3/s], 0.78217
 Component Sizing Information, AirTerminal:SingleDuct:ConstantVolume:NoReheat, BUILDING STORY 1 THERMALZONE 3 PSZ-AC DIFFUSER, Design Size Maximum Air Flow Rate [m3/s], 2.55388
 Component Sizing Information, AirTerminal:SingleDuct:ConstantVolume:NoReheat, BUILDING STORY 1 THERMALZONE 4 PSZ-AC DIFFUSER, Design Size Maximum Air Flow Rate [m3/s], 0.96482
 Component Sizing Information, AirLoopHVAC, BUILDING STORY 1 THERMALZONE 1 PSZ-AC, Sum of Air Terminal Maximum Heating Flow Rates [m3/s], 2.36170
 Component Sizing Information, AirLoopHVAC, BUILDING STORY 1 THERMALZONE 1 PSZ-AC, Sum of Air Terminal Minimum Heating Flow Rates [m3/s], 2.36170
 Component Sizing Information, AirLoopHVAC, BUILDING STORY 1 THERMALZONE 1 PSZ-AC, Sum of Air Terminal Maximum Flow Rates [m3/s], 2.36170
 Component Sizing Information, AirLoopHVAC, BUILDING STORY 1 THERMALZONE 1 PSZ-AC, Adjusted Heating Design Air Flow Rate [m3/s], 2.36170
 Component Sizing Information, AirLoopHVAC, BUILDING STORY 1 THERMALZONE 1 PSZ-AC, Adjusted Cooling Design Air Flow Rate [m3/s], 2.36170
 Component Sizing Information, AirLoopHVAC, BUILDING STORY 1 THERMALZONE 1 PSZ-AC, Adjusted Main Design Air Flow Rate [m3/s], 2.36170
 Component Sizing Information, AirLoopHVAC, BUILDING STORY 1 THERMALZONE 1 PSZ-AC, User Heating Air Flow Ratio [], 1.00000
 Component Sizing Information, AirLoopHVAC, BUILDING STORY 1 THERMALZONE 1 PSZ-AC, Calculated Heating Air Flow Ratio [], 1.00000
 Component Sizing Information, AirLoopHVAC, BUILDING STORY 1 THERMALZONE 2 PSZ-AC, Sum of Air Terminal Maximum Heating Flow Rates [m3/s], 0.78217
 Component Sizing Information, AirLoopHVAC, BUILDING STORY 1 THERMALZONE 2 PSZ-AC, Sum of Air Terminal Minimum Heating Flow Rates [m3/s], 0.78217
 Component Sizing Information, AirLoopHVAC, BUILDING STORY 1 THERMALZONE 2 PSZ-AC, Sum of Air Terminal Maximum Flow Rates [m3/s], 0.78217
 Component Sizing Information, AirLoopHVAC, BUILDING STORY 1 THERMALZONE 2 PSZ-AC, Adjusted Heating Design Air Flow Rate [m3/s], 0.78217
 Component Sizing Information, AirLoopHVAC, BUILDING STORY 1 THERMALZONE 2 PSZ-AC, Adjusted Cooling Design Air Flow Rate [m3/s], 0.78217
 Component Sizing Information, AirLoopHVAC, BUILDING STORY 1 THERMALZONE 2 PSZ-AC, Adjusted Main Design Air Flow Rate [m3/s], 0.78217
 Component Sizing Information, AirLoopHVAC, BUILDING STORY 1 THERMALZONE 2 PSZ-AC, User Heating Air Flow Ratio [], 1.00000
 Component Sizing Information, AirLoopHVAC, BUILDING STORY 1 THERMALZONE 2 PSZ-AC, Calculated Heating Air Flow Ratio [], 1.00000
 Component Sizing Information, AirLoopHVAC, BUILDING STORY 1 THERMALZONE 3 PSZ-AC, Sum of Air Terminal Maximum Heating Flow Rates [m3/s], 2.55388
 Component Sizing Information, AirLoopHVAC, BUILDING STORY 1 THERMALZONE 3 PSZ-AC, Sum of Air Terminal Minimum Heating Flow Rates [m3/s], 2.55388
 Component Sizing Information, AirLoopHVAC, BUILDING STORY 1 THERMALZONE 3 PSZ-AC, Sum of Air Terminal Maximum Flow Rates [m3/s], 2.55388
 Component Sizing Information, AirLoopHVAC, BUILDING STORY 1 THERMALZONE 3 PSZ-AC, Adjusted Heating Design Air Flow Rate [m3/s], 2.55388
 Component Sizing Information, AirLoopHVAC, BUILDING STORY 1 THERMALZONE 3 PSZ-AC, Adjusted Cooling Design Air Flow Rate [m3/s], 2.55388
 Component Sizing Information, AirLoopHVAC, BUILDING STORY 1 THERMALZONE 3 PSZ-AC, Adjusted Main Design Air Flow Rate [m3/s], 2.55388
 Component Sizing Information, AirLoopHVAC, BUILDING STORY 1 THERMALZONE 3 PSZ-AC, User Heating Air Flow Ratio [], 1.00000
 Component Sizing Information, AirLoopHVAC, BUILDING STORY 1 THERMALZONE 3 PSZ-AC, Calculated Heating Air Flow Ratio [], 1.00000
 Component Sizing Information, AirLoopHVAC, BUILDING STORY 1 THERMALZONE 4 PSZ-AC, Sum of Air Terminal Maximum Heating Flow Rates [m3/s], 0.96482
 Component Sizing Information, AirLoopHVAC, BUILDING STORY 1 THERMALZONE 4 PSZ-AC, Sum of Air Terminal Minimum Heating Flow Rates [m3/s], 0.96482
 Component Sizing Information, AirLoopHVAC, BUILDING STORY 1 THERMALZONE 4 PSZ-AC, Sum of Air Terminal Maximum Flow Rates [m3/s], 0.96482
 Component Sizing Information, AirLoopHVAC, BUILDING STORY 1 THERMALZONE 4 PSZ-AC, Adjusted Heating Design Air Flow Rate [m3/s], 0.96482
 Component Sizing Information, AirLoopHVAC, BUILDING STORY 1 THERMALZONE 4 PSZ-AC, Adjusted Cooling Design Air Flow Rate [m3/s], 0.96482
 Component Sizing Information, AirLoopHVAC, BUILDING STORY 1 THERMALZONE 4 PSZ-AC, Adjusted Main Design Air Flow Rate [m3/s], 0.96482
 Component Sizing Information, AirLoopHVAC, BUILDING STORY 1 THERMALZONE 4 PSZ-AC, User Heating Air Flow Ratio [], 1.00000
 Component Sizing Information, AirLoopHVAC, BUILDING STORY 1 THERMALZONE 4 PSZ-AC, Calculated Heating Air Flow Ratio [], 1.00000
 Component Sizing Information, AirLoopHVAC, BUILDING STORY 1 THERMALZONE PSZ-AC, Sum of Air Terminal Maximum Heating Flow Rates [m3/s], 11.37302
 Component Sizing Information, AirLoopHVAC, BUILDING STORY 1 THERMALZONE PSZ-AC, Sum of Air Terminal Minimum Heating Flow Rates [m3/s], 11.37302
 Component Sizing Information, AirLoopHVAC, BUILDING STORY 1 THERMALZONE PSZ-AC, Sum of Air Terminal Maximum Flow Rates [m3/s], 11.37302
 Component Sizing Information, AirLoopHVAC, BUILDING STORY 1 THERMALZONE PSZ-AC, Adjusted Heating Design Air Flow Rate [m3/s], 11.37302
 Component Sizing Information, AirLoopHVAC, BUILDING STORY 1 THERMALZONE PSZ-AC, Adjusted Cooling Design Air Flow Rate [m3/s], 11.37302
 Component Sizing Information, AirLoopHVAC, BUILDING STORY 1 THERMALZONE PSZ-AC, Adjusted Main Design Air Flow Rate [m3/s], 11.37302
 Component Sizing Information, AirLoopHVAC, BUILDING STORY 1 THERMALZONE PSZ-AC, User Heating Air Flow Ratio [], 1.00000
 Component Sizing Information, AirLoopHVAC, BUILDING STORY 1 THERMALZONE PSZ-AC, Calculated Heating Air Flow Ratio [], 1.00000
 Component Sizing Information, AirLoopHVAC, BUILDING STORY 1 THERMALZONE 1 PSZ-AC, Design Supply Air Flow Rate [m3/s], 2.36170
 Component Sizing Information, AirLoopHVAC, BUILDING STORY 1 THERMALZONE 2 PSZ-AC, Design Supply Air Flow Rate [m3/s], 0.78217
 Component Sizing Information, AirLoopHVAC, BUILDING STORY 1 THERMALZONE 3 PSZ-AC, Design Supply Air Flow Rate [m3/s], 2.55388
 Component Sizing Information, AirLoopHVAC, BUILDING STORY 1 THERMALZONE 4 PSZ-AC, Design Supply Air Flow Rate [m3/s], 0.96482
 Component Sizing Information, AirLoopHVAC, BUILDING STORY 1 THERMALZONE PSZ-AC, Design Supply Air Flow Rate [m3/s], 11.37302
!<Controller:MechanicalVentilation>,Name,Availability Schedule Name,Demand Controlled Ventilation {Yes/No},System Outdoor Air Method,Zone Maximum Outdoor Air Fraction,Number of Zones,Zone Name,DSOA Name,DSZAD Name
 Controller:MechanicalVentilation,CONTROLLER MECHANICAL VENTILATION 2,BUILDING STORY 1 THERMALZONE PSZ-AC OCC SCH,No,ZoneSum,1.00,1,BUILDING STORY 1 THERMALZONE,BLENDED OA,
 Controller:MechanicalVentilation,CONTROLLER MECHANICAL VENTILATION 5,BUILDING STORY 1 THERMALZONE 1 PSZ-AC OCC SCH,No,ZoneSum,1.00,1,BUILDING STORY 1 THERMALZONE 1,BLENDED OA,
 Controller:MechanicalVentilation,CONTROLLER MECHANICAL VENTILATION 1,BUILDING STORY 1 THERMALZONE 2 PSZ-AC OCC SCH,No,ZoneSum,1.00,1,BUILDING STORY 1 THERMALZONE 2,BLENDED OA,
 Controller:MechanicalVentilation,CONTROLLER MECHANICAL VENTILATION 3,BUILDING STORY 1 THERMALZONE 3 PSZ-AC OCC SCH,No,ZoneSum,1.00,1,BUILDING STORY 1 THERMALZONE 3,BLENDED OA,
 Controller:MechanicalVentilation,CONTROLLER MECHANICAL VENTILATION 4,BUILDING STORY 1 THERMALZONE 4 PSZ-AC OCC SCH,No,ZoneSum,1.00,1,BUILDING STORY 1 THERMALZONE 4,BLENDED OA,
 Component Sizing Information, Controller:OutdoorAir, BUILDING STORY 1 THERMALZONE 1 PSZ-AC OA SYSTEM CONTROLLER, Maximum Outdoor Air Flow Rate [m3/s], 2.36170
 Component Sizing Information, Controller:OutdoorAir, BUILDING STORY 1 THERMALZONE 1 PSZ-AC OA SYSTEM CONTROLLER, Minimum Outdoor Air Flow Rate [m3/s], 0.50146
 Component Sizing Information, HeatExchanger:AirToAir:SensibleAndLatent, BUILDING STORY 1 THERMALZONE 1 PSZ-AC ERV, Design Size Nominal Supply Air Flow Rate [m3/s], 0.50146
 Component Sizing Information, Coil:Cooling:DX:SingleSpeed, BUILDING STORY 1 THERMALZONE 1 PSZ-AC 1SPD DX AC CLG COIL 169KBTU/HR 10.8EER, Design Size Rated Air Flow Rate [m3/s], 2.36170
 Component Sizing Information, Coil:Cooling:DX:SingleSpeed, BUILDING STORY 1 THERMALZONE 1 PSZ-AC 1SPD DX AC CLG COIL 169KBTU/HR 10.8EER, Design Size Gross Rated Total Cooling Capacity [W], 49838.71654
 Component Sizing Information, Coil:Cooling:DX:SingleSpeed, BUILDING STORY 1 THERMALZONE 1 PSZ-AC 1SPD DX AC CLG COIL 169KBTU/HR 10.8EER, Design Size Gross Rated Sensible Heat Ratio, 0.75540
! <DX Cooling Coil Standard Rating Information>, Component Type, Component Name, Standard Rating (Net) Cooling Capacity {W}, Standard Rated Net COP {W/W}, EER {Btu/W-h}, SEER User {Btu/W-h}, SEER Standard {Btu/W-h}, IEER {Btu/W-h}
 DX Cooling Coil Standard Rating Information, Coil:Cooling:DX:SingleSpeed, BUILDING STORY 1 THERMALZONE 1 PSZ-AC 1SPD DX AC CLG COIL 169KBTU/HR 10.8EER, 47981.1, 3.16, 10.78, 10.70, 10.70, 10.87
 Component Sizing Information, Coil:Heating:Fuel, BUILDING STORY 1 THERMALZONE 1 PSZ-AC GAS HTG COIL, Design Size Nominal Capacity [W], 102861.28617
 Component Sizing Information, Coil:Heating:Electric, BUILDING STORY 1 THERMALZONE 1 PSZ-AC ELECTRIC BACKUP HTG COIL, Design Size Nominal Capacity [W], 102861.28617
 Component Sizing Information, Fan:ConstantVolume, BUILDING STORY 1 THERMALZONE 1 PSZ-AC FAN, Design Size Maximum Flow Rate [m3/s], 2.36170
 Component Sizing Information, Controller:OutdoorAir, BUILDING STORY 1 THERMALZONE 2 PSZ-AC OA SYSTEM CONTROLLER, Maximum Outdoor Air Flow Rate [m3/s], 0.78217
 Component Sizing Information, Controller:OutdoorAir, BUILDING STORY 1 THERMALZONE 2 PSZ-AC OA SYSTEM CONTROLLER, Minimum Outdoor Air Flow Rate [m3/s], 0.24348
 Component Sizing Information, HeatExchanger:AirToAir:SensibleAndLatent, BUILDING STORY 1 THERMALZONE 2 PSZ-AC ERV, Design Size Nominal Supply Air Flow Rate [m3/s], 0.24348
 Component Sizing Information, Coil:Cooling:DX:SingleSpeed, BUILDING STORY 1 THERMALZONE 2 PSZ-AC 1SPD DX AC CLG COIL 60KBTU/HR 14.0SEER, Design Size Rated Air Flow Rate [m3/s], 0.78217
 Component Sizing Information, Coil:Cooling:DX:SingleSpeed, BUILDING STORY 1 THERMALZONE 2 PSZ-AC 1SPD DX AC CLG COIL 60KBTU/HR 14.0SEER, Design Size Gross Rated Total Cooling Capacity [W], 18117.26050
 Component Sizing Information, Coil:Cooling:DX:SingleSpeed, BUILDING STORY 1 THERMALZONE 2 PSZ-AC 1SPD DX AC CLG COIL 60KBTU/HR 14.0SEER, Design Size Gross Rated Sensible Heat Ratio, 0.72275
 DX Cooling Coil Standard Rating Information, Coil:Cooling:DX:SingleSpeed, BUILDING STORY 1 THERMALZONE 2 PSZ-AC 1SPD DX AC CLG COIL 60KBTU/HR 14.0SEER, 17501.0, 3.50, 11.93, 11.84, 11.84, 12.02
 Component Sizing Information, Coil:Heating:Fuel, BUILDING STORY 1 THERMALZONE 2 PSZ-AC GAS HTG COIL, Design Size Nominal Capacity [W], 37472.06105
 Component Sizing Information, Coil:Heating:Electric, BUILDING STORY 1 THERMALZONE 2 PSZ-AC ELECTRIC BACKUP HTG COIL, Design Size Nominal Capacity [W], 37472.06105
 Component Sizing Information, Fan:ConstantVolume, BUILDING STORY 1 THERMALZONE 2 PSZ-AC FAN, Design Size Maximum Flow Rate [m3/s], 0.78217
 Component Sizing Information, Controller:OutdoorAir, BUILDING STORY 1 THERMALZONE 3 PSZ-AC OA SYSTEM CONTROLLER, Maximum Outdoor Air Flow Rate [m3/s], 2.55388
 Component Sizing Information, Controller:OutdoorAir, BUILDING STORY 1 THERMALZONE 3 PSZ-AC OA SYSTEM CONTROLLER, Minimum Outdoor Air Flow Rate [m3/s], 0.50146
 Component Sizing Information, HeatExchanger:AirToAir:SensibleAndLatent, BUILDING STORY 1 THERMALZONE 3 PSZ-AC ERV, Design Size Nominal Supply Air Flow Rate [m3/s], 0.50146
 Component Sizing Information, Coil:Cooling:DX:SingleSpeed, BUILDING STORY 1 THERMALZONE 3 PSZ-AC 1SPD DX AC CLG COIL 153KBTU/HR 10.8EER, Design Size Rated Air Flow Rate [m3/s], 2.55388
 Component Sizing Information, Coil:Cooling:DX:SingleSpeed, BUILDING STORY 1 THERMALZONE 3 PSZ-AC 1SPD DX AC CLG COIL 153KBTU/HR 10.8EER, Design Size Gross Rated Total Cooling Capacity [W], 53443.47583
 Component Sizing Information, Coil:Cooling:DX:SingleSpeed, BUILDING STORY 1 THERMALZONE 3 PSZ-AC 1SPD DX AC CLG COIL 153KBTU/HR 10.8EER, Design Size Gross Rated Sensible Heat Ratio, 0.75883
 DX Cooling Coil Standard Rating Information, Coil:Cooling:DX:SingleSpeed, BUILDING STORY 1 THERMALZONE 3 PSZ-AC 1SPD DX AC CLG COIL 153KBTU/HR 10.8EER, 51435.0, 3.16, 10.77, 10.69, 10.69, 10.85
 Component Sizing Information, Coil:Heating:Fuel, BUILDING STORY 1 THERMALZONE 3 PSZ-AC GAS HTG COIL, Design Size Nominal Capacity [W], 109435.96522
 Component Sizing Information, Coil:Heating:Electric, BUILDING STORY 1 THERMALZONE 3 PSZ-AC ELECTRIC BACKUP HTG COIL, Design Size Nominal Capacity [W], 109435.96522
 Component Sizing Information, Fan:ConstantVolume, BUILDING STORY 1 THERMALZONE 3 PSZ-AC FAN, Design Size Maximum Flow Rate [m3/s], 2.55388
 Component Sizing Information, Controller:OutdoorAir, BUILDING STORY 1 THERMALZONE 4 PSZ-AC OA SYSTEM CONTROLLER, Maximum Outdoor Air Flow Rate [m3/s], 0.96482
 Component Sizing Information, Controller:OutdoorAir, BUILDING STORY 1 THERMALZONE 4 PSZ-AC OA SYSTEM CONTROLLER, Minimum Outdoor Air Flow Rate [m3/s], 0.24348
 Component Sizing Information, HeatExchanger:AirToAir:SensibleAndLatent, BUILDING STORY 1 THERMALZONE 4 PSZ-AC ERV, Design Size Nominal Supply Air Flow Rate [m3/s], 0.24348
 Component Sizing Information, Coil:Cooling:DX:SingleSpeed, BUILDING STORY 1 THERMALZONE 4 PSZ-AC 1SPD DX AC CLG COIL 71KBTU/HR 11.0EER, Design Size Rated Air Flow Rate [m3/s], 0.96482
 Component Sizing Information, Coil:Cooling:DX:SingleSpeed, BUILDING STORY 1 THERMALZONE 4 PSZ-AC 1SPD DX AC CLG COIL 71KBTU/HR 11.0EER, Design Size Gross Rated Total Cooling Capacity [W], 21552.44219
 Component Sizing Information, Coil:Cooling:DX:SingleSpeed, BUILDING STORY 1 THERMALZONE 4 PSZ-AC 1SPD DX AC CLG COIL 71KBTU/HR 11.0EER, Design Size Gross Rated Sensible Heat Ratio, 0.73545
 DX Cooling Coil Standard Rating Information, Coil:Cooling:DX:SingleSpeed, BUILDING STORY 1 THERMALZONE 4 PSZ-AC 1SPD DX AC CLG COIL 71KBTU/HR 11.0EER, 20792.8, 3.24, 11.05, 10.97, 10.97, 11.18
 Component Sizing Information, Coil:Heating:Fuel, BUILDING STORY 1 THERMALZONE 4 PSZ-AC GAS HTG COIL, Design Size Nominal Capacity [W], 43721.00235
 Component Sizing Information, Coil:Heating:Electric, BUILDING STORY 1 THERMALZONE 4 PSZ-AC ELECTRIC BACKUP HTG COIL, Design Size Nominal Capacity [W], 43721.00235
 Component Sizing Information, Fan:ConstantVolume, BUILDING STORY 1 THERMALZONE 4 PSZ-AC FAN, Design Size Maximum Flow Rate [m3/s], 0.96482
 Component Sizing Information, Controller:OutdoorAir, BUILDING STORY 1 THERMALZONE PSZ-AC OA SYSTEM CONTROLLER, Maximum Outdoor Air Flow Rate [m3/s], 11.37302
 Component Sizing Information, Controller:OutdoorAir, BUILDING STORY 1 THERMALZONE PSZ-AC OA SYSTEM CONTROLLER, Minimum Outdoor Air Flow Rate [m3/s], 4.53055
 Component Sizing Information, HeatExchanger:AirToAir:SensibleAndLatent, BUILDING STORY 1 THERMALZONE PSZ-AC ERV, Design Size Nominal Supply Air Flow Rate [m3/s], 4.53055
 Component Sizing Information, Coil:Cooling:DX:SingleSpeed, BUILDING STORY 1 THERMALZONE PSZ-AC 1SPD DX AC CLG COIL 856KBTU/HR 9.5EER, Design Size Rated Air Flow Rate [m3/s], 11.37302
 Component Sizing Information, Coil:Cooling:DX:SingleSpeed, BUILDING STORY 1 THERMALZONE PSZ-AC 1SPD DX AC CLG COIL 856KBTU/HR 9.5EER, Design Size Gross Rated Total Cooling Capacity [W], 282419.28440
 Component Sizing Information, Coil:Cooling:DX:SingleSpeed, BUILDING STORY 1 THERMALZONE PSZ-AC 1SPD DX AC CLG COIL 856KBTU/HR 9.5EER, Design Size Gross Rated Sensible Heat Ratio, 0.70108
 DX Cooling Coil Standard Rating Information, Coil:Cooling:DX:SingleSpeed, BUILDING STORY 1 THERMALZONE PSZ-AC 1SPD DX AC CLG COIL 856KBTU/HR 9.5EER, 273447.0, 2.90, 9.88, 9.83, 9.83, 10.19
 Component Sizing Information, Coil:Heating:Fuel, BUILDING STORY 1 THERMALZONE PSZ-AC GAS HTG COIL, Design Size Nominal Capacity [W], 588419.50906
 Component Sizing Information, Coil:Heating:Electric, BUILDING STORY 1 THERMALZONE PSZ-AC ELECTRIC BACKUP HTG COIL, Design Size Nominal Capacity [W], 588419.50906
 Component Sizing Information, Fan:ConstantVolume, BUILDING STORY 1 THERMALZONE PSZ-AC FAN, Design Size Maximum Flow Rate [m3/s], 11.37302
Water Heater Information,WaterHeater:Mixed,6.0GAL ELECTRICITY BOOSTER WATER HEATER - 65KBTU/HR 1.0 THERM EFF,2.2712E-002,19120.0,34.653,0.9158
Water Heater Information,WaterHeater:Mixed,340GAL NATURALGAS WATER HEATER - 340KBTU/HR 0.804 THERM EFF,1.2862,99583.3,0.536,0.4638
 Component Sizing Information, PlantLoop, FULLSERVICERESTAURANT KITCHEN - 90.1-2013 SERVICE WATER BOOSTER LOOP, Initial Maximum Loop Flow Rate [m3/s], 3.40279E-004
 Component Sizing Information, PlantLoop, FULLSERVICERESTAURANT KITCHEN - 90.1-2013 SERVICE WATER BOOSTER LOOP, Initial Plant Loop Volume [m3], 4.08335E-002
 Component Sizing Information, Pump:VariableSpeed, BOOSTER WATER LOOP PUMP, Initial Design Flow Rate [m3/s], 3.40279E-004
 Component Sizing Information, HeatExchanger:FluidToFluid, HX FOR BOOSTER WATER HEATING, Initial Loop Supply Side Design Fluid Flow Rate [m3/s], 3.40279E-004
 Component Sizing Information, HeatExchanger:FluidToFluid, HX FOR BOOSTER WATER HEATING, Initial Loop Demand Side Design Fluid Flow Rate [m3/s], 3.40279E-004
 Component Sizing Information, HeatExchanger:FluidToFluid, HX FOR BOOSTER WATER HEATING, Initial Heat Exchanger U-Factor Times Area Value [W/C], 414.67406
 Component Sizing Information, HeatExchanger:FluidToFluid, HX FOR BOOSTER WATER HEATING, Initial Loop-to-loop Temperature Difference Used to Size Heat Exchanger U-Factor Times Area Value [C], 17.22222
 Component Sizing Information, WaterHeater:Mixed, 6.0GAL ELECTRICITY BOOSTER WATER HEATER - 65KBTU/HR 1.0 THERM EFF, Initial Use Side Design Flow Rate [m3/s], 3.40279E-004
 Component Sizing Information, PlantComponent:TemperatureSource, MAINS WATER MAKEUP FOR SWH BOOSTER, Initial Design Size Design Fluid Flow Rate [m3/s], 1.92825E-003
 Component Sizing Information, PlantLoop, FULLSERVICERESTAURANT KITCHEN - 90.1-2013 SERVICE WATER LOOP, Initial Maximum Loop Flow Rate [m3/s], 2.49538E-003
 Component Sizing Information, PlantLoop, FULLSERVICERESTAURANT KITCHEN - 90.1-2013 SERVICE WATER LOOP, Initial Plant Loop Volume [m3], 0.29945
 Component Sizing Information, Pump:VariableSpeed, FULLSERVICERESTAURANT KITCHEN - 90.1-2013 SERVICE WATER LOOP WATER MAINS PRESSURE DRIVEN, Initial Design Flow Rate [m3/s], 2.49538E-003
 Component Sizing Information, Pump:VariableSpeed, FULLSERVICERESTAURANT KITCHEN - 90.1-2013 SERVICE WATER LOOP WATER MAINS PRESSURE DRIVEN, Initial Design Power Consumption [W], 4.57029E-006
 Component Sizing Information, WaterHeater:Mixed, 340GAL NATURALGAS WATER HEATER - 340KBTU/HR 0.804 THERM EFF, Initial Use Side Design Flow Rate [m3/s], 2.49538E-003
 Component Sizing Information, PlantLoop, HOT WATER LOOP, Initial Maximum Loop Flow Rate [m3/s], 0.00000
 Component Sizing Information, PlantLoop, HOT WATER LOOP, Initial Plant Loop Volume [m3], 0.00000
 Component Sizing Information, Pump:VariableSpeed, HOT WATER LOOP PUMP, Initial Design Flow Rate [m3/s], -99999.00000
 Component Sizing Information, Pump:VariableSpeed, HOT WATER LOOP PUMP, Initial Design Power Consumption [W], 0.00000
 Component Sizing Information, Boiler:HotWater, BOILER, Initial Design Size Nominal Capacity [W], 0.00000
 Component Sizing Information, Boiler:HotWater, BOILER, Initial Design Size Design Water Flow Rate [m3/s], 0.00000
! <Environment>,Environment Name,Environment Type, Start Date, End Date, Start DayOfWeek, Duration {#days}, Source:Start DayOfWeek,  Use Daylight Saving, Use Holidays, Apply Weekend Holiday Rule,  Use Rain Values, Use Snow Values, Sky Temperature Model
! <Environment:Special Days>, Special Day Name, Special Day Type, Source, Start Date, Duration {#days}
! <Environment:Daylight Saving>, Daylight Saving Indicator, Source, Start Date, End Date
! <Environment:WarmupDays>, NumberofWarmupDays
Environment,RUN PERIOD 1,WeatherFileRunPeriod,01/01/2017,12/31/2017,Sunday,365,Use RunPeriod Specified Day,No,No,No,Yes,Yes,Clark and Allen
Environment:Daylight Saving,Yes,InputFile,03/12,11/05
! <Environment:Design Day Data>, Max Dry-Bulb Temp {C}, Temp Range {dC}, Temp Range Ind Type, Hum Ind Type, Hum Ind Value at Max Temp, Hum Ind Units, Pressure {Pa}, Wind Direction {deg CW from N}, Wind Speed {m/s}, Clearness, Rain, Snow
! <Environment:Design Day Misc>,DayOfYear,ASHRAE A Coeff,ASHRAE B Coeff,ASHRAE C Coeff,Solar Constant-Annual Variation,Eq of Time {minutes}, Solar Declination Angle {deg}, Solar Model
Environment:Design Day Data,30.30,9.30,DefaultMultipliers,Wetbulb,21.80,{C},98769,240,5.7,0.00,No,No
Environment:Design Day Misc,202,1084.4,0.2082,0.1365,1.0,-6.23,20.6,ASHRAETau
Environment:WarmupDays,  3
! <Tabular Report>,Style,Unit Conversion
Tabular Report,HTML,None
! <Warmup Convergence Information>,Zone Name,Environment Type/Name,Average Warmup Temperature Difference {deltaC},Std Dev Warmup Temperature Difference {deltaC},Max Temperature Pass/Fail Convergence,Min Temperature Pass/Fail Convergence,Average Warmup Load Difference {W},Std Dev Warmup Load Difference {W},Heating Load Pass/Fail Convergence,Cooling Load Pass/Fail Convergence
 Warmup Convergence Information,BUILDING STORY 1 THERMALZONE,SizingPeriod: BUFFALO NIAGARA INTL AP ANN CLG .4% CONDNS DB=>MWB 1 HVAC Sizing Pass 1,0.3498651736,1.0116896440,Pass,Pass,8.3824015142E-002,0.2295396069,Pass,Pass
 Warmup Convergence Information,BUILDING STORY 1 THERMALZONE 1,SizingPeriod: BUFFALO NIAGARA INTL AP ANN CLG .4% CONDNS DB=>MWB 1 HVAC Sizing Pass 1,0.2119564011,0.6033870484,Pass,Pass,0.1172699468,0.1602130072,Pass,Pass
 Warmup Convergence Information,BUILDING STORY 1 THERMALZONE 2,SizingPeriod: BUFFALO NIAGARA INTL AP ANN CLG .4% CONDNS DB=>MWB 1 HVAC Sizing Pass 1,0.2628733384,0.7597500450,Pass,Pass,9.9168314387E-002,0.2141303541,Pass,Pass
 Warmup Convergence Information,BUILDING STORY 1 THERMALZONE 3,SizingPeriod: BUFFALO NIAGARA INTL AP ANN CLG .4% CONDNS DB=>MWB 1 HVAC Sizing Pass 1,0.2615762527,0.6729102461,Pass,Pass,0.1027617041,0.1432533636,Pass,Pass
 Warmup Convergence Information,BUILDING STORY 1 THERMALZONE 4,SizingPeriod: BUFFALO NIAGARA INTL AP ANN CLG .4% CONDNS DB=>MWB 1 HVAC Sizing Pass 1,0.2221629900,0.6476748883,Pass,Pass,0.1010444229,0.1709007886,Pass,Pass
Environment:Design Day Data,27.80,9.30,DefaultMultipliers,Wetbulb,23.80,{C},98769,240,5.7,0.00,No,No
Environment:Design Day Misc,202,1084.4,0.2082,0.1365,1.0,-6.23,20.6,ASHRAETau
Environment:WarmupDays,  3
 Warmup Convergence Information,BUILDING STORY 1 THERMALZONE,SizingPeriod: BUFFALO NIAGARA INTL AP ANN CLG .4% CONDNS WB=>MDB 1 HVAC Sizing Pass 1,0.3186820316,0.6646392742,Pass,Pass,5.5458293307E-002,0.1280812621,Pass,Pass
 Warmup Convergence Information,BUILDING STORY 1 THERMALZONE 1,SizingPeriod: BUFFALO NIAGARA INTL AP ANN CLG .4% CONDNS WB=>MDB 1 HVAC Sizing Pass 1,6.7143877790E-002,0.1772759209,Pass,Pass,8.2280623515E-002,8.1078624928E-002,Pass,Pass
 Warmup Convergence Information,BUILDING STORY 1 THERMALZONE 2,SizingPeriod: BUFFALO NIAGARA INTL AP ANN CLG .4% CONDNS WB=>MDB 1 HVAC Sizing Pass 1,0.1493707149,0.3770101187,Pass,Pass,6.4444191715E-002,0.1004327084,Pass,Pass
 Warmup Convergence Information,BUILDING STORY 1 THERMALZONE 3,SizingPeriod: BUFFALO NIAGARA INTL AP ANN CLG .4% CONDNS WB=>MDB 1 HVAC Sizing Pass 1,0.1652597845,0.2951224786,Pass,Pass,5.9556056032E-002,7.1664714021E-002,Pass,Pass
 Warmup Convergence Information,BUILDING STORY 1 THERMALZONE 4,SizingPeriod: BUFFALO NIAGARA INTL AP ANN CLG .4% CONDNS WB=>MDB 1 HVAC Sizing Pass 1,8.4299621750E-002,0.2407542955,Pass,Pass,6.5700992246E-002,6.4046501588E-002,Pass,Pass
Environment:Design Day Data,-16.30,0.00,DefaultMultipliers,Wetbulb,-16.30,{C},98769,270,5.1,0.00,No,No
Environment:Design Day Misc, 21,1229.0,0.1415,5.7310E-002,1.0,-11.15,-20.1,ASHRAEClearSky
Environment:WarmupDays,  3
 Warmup Convergence Information,BUILDING STORY 1 THERMALZONE,SizingPeriod: BUFFALO NIAGARA INTL AP ANN HTG 99.6% CONDNS DB 1 HVAC Sizing Pass 1,1.6283271028E-015,1.7701781882E-015,Pass,Pass,5.5256751718E-005,3.4990695266E-005,Pass,Pass
 Warmup Convergence Information,BUILDING STORY 1 THERMALZONE 1,SizingPeriod: BUFFALO NIAGARA INTL AP ANN HTG 99.6% CONDNS DB 1 HVAC Sizing Pass 1,2.5165055225E-015,1.6148137812E-015,Pass,Pass,3.6810182233E-006,2.8876833410E-006,Pass,Pass
 Warmup Convergence Information,BUILDING STORY 1 THERMALZONE 2,SizingPeriod: BUFFALO NIAGARA INTL AP ANN HTG 99.6% CONDNS DB 1 HVAC Sizing Pass 1,2.6645352591E-015,2.5639502485E-015,Pass,Pass,3.4338162915E-006,2.7093964858E-006,Pass,Pass
 Warmup Convergence Information,BUILDING STORY 1 THERMALZONE 3,SizingPeriod: BUFFALO NIAGARA INTL AP ANN HTG 99.6% CONDNS DB 1 HVAC Sizing Pass 1,1.6283271028E-015,1.7701781882E-015,Pass,Pass,3.7186320138E-006,2.9177222656E-006,Pass,Pass
 Warmup Convergence Information,BUILDING STORY 1 THERMALZONE 4,SizingPeriod: BUFFALO NIAGARA INTL AP ANN HTG 99.6% CONDNS DB 1 HVAC Sizing Pass 1,1.4802973662E-015,1.7515114642E-015,Pass,Pass,3.4239341917E-006,2.7020939794E-006,Pass,Pass
Environment:Design Day Data,30.30,9.30,DefaultMultipliers,Wetbulb,21.80,{C},98769,240,5.7,0.00,No,No
Environment:Design Day Misc,202,1084.4,0.2082,0.1365,1.0,-6.23,20.6,ASHRAETau
 Component Sizing Information, PlantLoop, FULLSERVICERESTAURANT KITCHEN - 90.1-2013 SERVICE WATER BOOSTER LOOP, Maximum Loop Flow Rate [m3/s], 3.40279E-004
 Component Sizing Information, PlantLoop, FULLSERVICERESTAURANT KITCHEN - 90.1-2013 SERVICE WATER BOOSTER LOOP, Plant Loop Volume [m3], 4.08335E-002
 Component Sizing Information, PlantLoop, FULLSERVICERESTAURANT KITCHEN - 90.1-2013 SERVICE WATER LOOP, Maximum Loop Flow Rate [m3/s], 3.06251E-003
 Component Sizing Information, PlantLoop, FULLSERVICERESTAURANT KITCHEN - 90.1-2013 SERVICE WATER LOOP, Plant Loop Volume [m3], 0.36750
 Component Sizing Information, PlantLoop, HOT WATER LOOP, Maximum Loop Flow Rate [m3/s], 0.00000
 Component Sizing Information, PlantLoop, HOT WATER LOOP, Plant Loop Volume [m3], 0.00000
 Component Sizing Information, HeatExchanger:FluidToFluid, HX FOR BOOSTER WATER HEATING, Loop Supply Side Design Fluid Flow Rate [m3/s], 3.40279E-004
 Component Sizing Information, HeatExchanger:FluidToFluid, HX FOR BOOSTER WATER HEATING, Loop Demand Side Design Fluid Flow Rate [m3/s], 3.40279E-004
 Component Sizing Information, HeatExchanger:FluidToFluid, HX FOR BOOSTER WATER HEATING, Heat Exchanger U-Factor Times Area Value [W/C], 414.67406
 Component Sizing Information, HeatExchanger:FluidToFluid, HX FOR BOOSTER WATER HEATING, Loop-to-loop Temperature Difference Used to Size Heat Exchanger U-Factor Times Area Value [C], 17.22222
 Component Sizing Information, WaterHeater:Mixed, 6.0GAL ELECTRICITY BOOSTER WATER HEATER - 65KBTU/HR 1.0 THERM EFF, Use Side Design Flow Rate [m3/s], 3.40279E-004
 Component Sizing Information, Pump:VariableSpeed, BOOSTER WATER LOOP PUMP, Design Flow Rate [m3/s], 3.40279E-004
 Component Sizing Information, PlantComponent:TemperatureSource, MAINS WATER MAKEUP FOR SWH BOOSTER, Design Size Design Fluid Flow Rate [m3/s], 3.06251E-003
 Component Sizing Information, WaterHeater:Mixed, 340GAL NATURALGAS WATER HEATER - 340KBTU/HR 0.804 THERM EFF, Use Side Design Flow Rate [m3/s], 3.06251E-003
 Component Sizing Information, Pump:VariableSpeed, FULLSERVICERESTAURANT KITCHEN - 90.1-2013 SERVICE WATER LOOP WATER MAINS PRESSURE DRIVEN, Design Flow Rate [m3/s], 3.06251E-003
 Component Sizing Information, Pump:VariableSpeed, FULLSERVICERESTAURANT KITCHEN - 90.1-2013 SERVICE WATER LOOP WATER MAINS PRESSURE DRIVEN, Design Power Consumption [W], 5.60899E-006
 Component Sizing Information, Boiler:HotWater, BOILER, Design Size Nominal Capacity [W], 0.00000
 Component Sizing Information, Boiler:HotWater, BOILER, Design Size Design Water Flow Rate [m3/s], 0.00000
 Component Sizing Information, Pump:VariableSpeed, HOT WATER LOOP PUMP, Design Flow Rate [m3/s], 0.00000
 Component Sizing Information, Pump:VariableSpeed, HOT WATER LOOP PUMP, Design Power Consumption [W], 0.00000
Environment:Design Day Data,27.80,9.30,DefaultMultipliers,Wetbulb,23.80,{C},98769,240,5.7,0.00,No,No
Environment:Design Day Misc,202,1084.4,0.2082,0.1365,1.0,-6.23,20.6,ASHRAETau
Environment:Design Day Data,-16.30,0.00,DefaultMultipliers,Wetbulb,-16.30,{C},98769,270,5.1,0.00,No,No
Environment:Design Day Misc, 21,1229.0,0.1415,5.7310E-002,1.0,-11.15,-20.1,ASHRAEClearSky
Environment,RUN PERIOD 1,WeatherFileRunPeriod,01/01/2017,12/31/2017,Sunday,365,Use RunPeriod Specified Day,No,No,No,Yes,Yes,Clark and Allen
Environment:Design Day Data,30.30,9.30,DefaultMultipliers,Wetbulb,21.80,{C},98769,240,5.7,0.00,No,No
Environment:Design Day Misc,202,1084.4,0.2082,0.1365,1.0,-6.23,20.6,ASHRAETau
Environment:Design Day Data,27.80,9.30,DefaultMultipliers,Wetbulb,23.80,{C},98769,240,5.7,0.00,No,No
Environment:Design Day Misc,202,1084.4,0.2082,0.1365,1.0,-6.23,20.6,ASHRAETau
Environment:Design Day Data,-16.30,0.00,DefaultMultipliers,Wetbulb,-16.30,{C},98769,270,5.1,0.00,No,No
Environment:Design Day Misc, 21,1229.0,0.1415,5.7310E-002,1.0,-11.15,-20.1,ASHRAEClearSky
Environment,RUN PERIOD 1,WeatherFileRunPeriod,01/01/2017,12/31/2017,Sunday,365,Use RunPeriod Specified Day,No,No,No,Yes,Yes,Clark and Allen
Environment:Daylight Saving,Yes,InputFile,03/12,11/05
Environment:WarmupDays,  4
 Warmup Convergence Information,BUILDING STORY 1 THERMALZONE,RunPeriod: RUN PERIOD 1,0.3812651828,0.3485627797,Pass,Pass,0.1027935430,0.1983357629,Pass,Pass
 Warmup Convergence Information,BUILDING STORY 1 THERMALZONE 1,RunPeriod: RUN PERIOD 1,0.3091674855,0.3917387095,Pass,Pass,166.5014970758,749.9107303537,Pass,Pass
 Warmup Convergence Information,BUILDING STORY 1 THERMALZONE 2,RunPeriod: RUN PERIOD 1,0.3003755113,0.4905564623,Pass,Pass,0.9034076696,1.8304272961,Pass,Pass
 Warmup Convergence Information,BUILDING STORY 1 THERMALZONE 3,RunPeriod: RUN PERIOD 1,0.3068528271,0.4148948929,Pass,Pass,1.1893702237,2.6167046072,Pass,Pass
 Warmup Convergence Information,BUILDING STORY 1 THERMALZONE 4,RunPeriod: RUN PERIOD 1,0.3085447996,0.4516625338,Pass,Pass,0.8990162801,1.9761444839,Pass,Pass
! <Program Control Information:Threads/Parallel Sims>, Threading Supported,Maximum Number of Threads, Env Set Threads (OMP_NUM_THREADS), EP Env Set Threads (EP_OMP_NUM_THREADS), IDF Set Threads, Number of Threads Used (Interior Radiant Exchange), Number Nominal Surfaces, Number Parallel Sims
Program Control:Threads/Parallel Sims, No,1, N/A, N/A, N/A, N/A, N/A, N/A
End of Data
