! Program Version,EnergyPlus, Version 9.4.0-998c4b761e, YMD=2021.03.02 09:47,
! Output:Meter Objects (applicable to this run)
Output:Meter,Electricity:Facility,hourly; !- [J]
Output:Meter:Cumulative,Electricity:Facility,hourly; !- [J]
Output:Meter,Electricity:Building,hourly; !- [J]
Output:Meter:Cumulative,Electricity:Building,hourly; !- [J]
Output:Meter,Electricity:Zone:BUILDING STORY 1 THERMALZONE,hourly; !- [J]
Output:Meter:Cumulative,Electricity:Zone:BUILDING STORY 1 THERMALZONE,hourly; !- [J]
Output:Meter,InteriorLights:Electricity,hourly; !- [J]
Output:Meter:Cumulative,InteriorLights:Electricity,hourly; !- [J]
Output:Meter,InteriorLights:Electricity:Zone:BUILDING STORY 1 THERMALZONE,hourly; !- [J]
Output:Meter:Cumulative,InteriorLights:Electricity:Zone:BUILDING STORY 1 THERMALZONE,hourly; !- [J]
Output:Meter,General:InteriorLights:Electricity,hourly; !- [J]
Output:Meter:Cumulative,General:InteriorLights:Electricity,hourly; !- [J]
Output:Meter,Electricity:Zone:BUILDING STORY 1 THERMALZONE 1,hourly; !- [J]
Output:Meter:Cumulative,Electricity:Zone:BUILDING STORY 1 THERMALZONE 1,hourly; !- [J]
Output:Meter,InteriorLights:Electricity:Zone:BUILDING STORY 1 THERMALZONE 1,hourly; !- [J]
Output:Meter:Cumulative,InteriorLights:Electricity:Zone:BUILDING STORY 1 THERMALZONE 1,hourly; !- [J]
Output:Meter,Electricity:Zone:BUILDING STORY 1 THERMALZONE 2,hourly; !- [J]
Output:Meter:Cumulative,Electricity:Zone:BUILDING STORY 1 THERMALZONE 2,hourly; !- [J]
Output:Meter,InteriorLights:Electricity:Zone:BUILDING STORY 1 THERMALZONE 2,hourly; !- [J]
Output:Meter:Cumulative,InteriorLights:Electricity:Zone:BUILDING STORY 1 THERMALZONE 2,hourly; !- [J]
Output:Meter,Electricity:Zone:BUILDING STORY 1 THERMALZONE 3,hourly; !- [J]
Output:Meter:Cumulative,Electricity:Zone:BUILDING STORY 1 THERMALZONE 3,hourly; !- [J]
Output:Meter,InteriorLights:Electricity:Zone:BUILDING STORY 1 THERMALZONE 3,hourly; !- [J]
Output:Meter:Cumulative,InteriorLights:Electricity:Zone:BUILDING STORY 1 THERMALZONE 3,hourly; !- [J]
Output:Meter,Electricity:Zone:BUILDING STORY 1 THERMALZONE 4,hourly; !- [J]
Output:Meter:Cumulative,Electricity:Zone:BUILDING STORY 1 THERMALZONE 4,hourly; !- [J]
Output:Meter,InteriorLights:Electricity:Zone:BUILDING STORY 1 THERMALZONE 4,hourly; !- [J]
Output:Meter:Cumulative,InteriorLights:Electricity:Zone:BUILDING STORY 1 THERMALZONE 4,hourly; !- [J]
Output:Meter,InteriorEquipment:Electricity,hourly; !- [J]
Output:Meter:Cumulative,InteriorEquipment:Electricity,hourly; !- [J]
Output:Meter,InteriorEquipment:Electricity:Zone:BUILDING STORY 1 THERMALZONE,hourly; !- [J]
Output:Meter:Cumulative,InteriorEquipment:Electricity:Zone:BUILDING STORY 1 THERMALZONE,hourly; !- [J]
Output:Meter,General:InteriorEquipment:Electricity,hourly; !- [J]
Output:Meter:Cumulative,General:InteriorEquipment:Electricity,hourly; !- [J]
Output:Meter,InteriorEquipment:Electricity:Zone:BUILDING STORY 1 THERMALZONE 1,hourly; !- [J]
Output:Meter:Cumulative,InteriorEquipment:Electricity:Zone:BUILDING STORY 1 THERMALZONE 1,hourly; !- [J]
Output:Meter,InteriorEquipment:Electricity:Zone:BUILDING STORY 1 THERMALZONE 2,hourly; !- [J]
Output:Meter:Cumulative,InteriorEquipment:Electricity:Zone:BUILDING STORY 1 THERMALZONE 2,hourly; !- [J]
Output:Meter,InteriorEquipment:Electricity:Zone:BUILDING STORY 1 THERMALZONE 3,hourly; !- [J]
Output:Meter:Cumulative,InteriorEquipment:Electricity:Zone:BUILDING STORY 1 THERMALZONE 3,hourly; !- [J]
Output:Meter,InteriorEquipment:Electricity:Zone:BUILDING STORY 1 THERMALZONE 4,hourly; !- [J]
Output:Meter:Cumulative,InteriorEquipment:Electricity:Zone:BUILDING STORY 1 THERMALZONE 4,hourly; !- [J]
Output:Meter,NaturalGas:Facility,hourly; !- [J]
Output:Meter:Cumulative,NaturalGas:Facility,hourly; !- [J]
Output:Meter,NaturalGas:Building,hourly; !- [J]
Output:Meter:Cumulative,NaturalGas:Building,hourly; !- [J]
Output:Meter,NaturalGas:Zone:BUILDING STORY 1 THERMALZONE,hourly; !- [J]
Output:Meter:Cumulative,NaturalGas:Zone:BUILDING STORY 1 THERMALZONE,hourly; !- [J]
Output:Meter,InteriorEquipment:NaturalGas,hourly; !- [J]
Output:Meter:Cumulative,InteriorEquipment:NaturalGas,hourly; !- [J]
Output:Meter,InteriorEquipment:NaturalGas:Zone:BUILDING STORY 1 THERMALZONE,hourly; !- [J]
Output:Meter:Cumulative,InteriorEquipment:NaturalGas:Zone:BUILDING STORY 1 THERMALZONE,hourly; !- [J]
Output:Meter,General:InteriorEquipment:NaturalGas,hourly; !- [J]
Output:Meter:Cumulative,General:InteriorEquipment:NaturalGas,hourly; !- [J]
Output:Meter,NaturalGas:Zone:BUILDING STORY 1 THERMALZONE 1,hourly; !- [J]
Output:Meter:Cumulative,NaturalGas:Zone:BUILDING STORY 1 THERMALZONE 1,hourly; !- [J]
Output:Meter,InteriorEquipment:NaturalGas:Zone:BUILDING STORY 1 THERMALZONE 1,hourly; !- [J]
Output:Meter:Cumulative,InteriorEquipment:NaturalGas:Zone:BUILDING STORY 1 THERMALZONE 1,hourly; !- [J]
Output:Meter,NaturalGas:Zone:BUILDING STORY 1 THERMALZONE 2,hourly; !- [J]
Output:Meter:Cumulative,NaturalGas:Zone:BUILDING STORY 1 THERMALZONE 2,hourly; !- [J]
Output:Meter,InteriorEquipment:NaturalGas:Zone:BUILDING STORY 1 THERMALZONE 2,hourly; !- [J]
Output:Meter:Cumulative,InteriorEquipment:NaturalGas:Zone:BUILDING STORY 1 THERMALZONE 2,hourly; !- [J]
Output:Meter,NaturalGas:Zone:BUILDING STORY 1 THERMALZONE 3,hourly; !- [J]
Output:Meter:Cumulative,NaturalGas:Zone:BUILDING STORY 1 THERMALZONE 3,hourly; !- [J]
Output:Meter,InteriorEquipment:NaturalGas:Zone:BUILDING STORY 1 THERMALZONE 3,hourly; !- [J]
Output:Meter:Cumulative,InteriorEquipment:NaturalGas:Zone:BUILDING STORY 1 THERMALZONE 3,hourly; !- [J]
Output:Meter,NaturalGas:Zone:BUILDING STORY 1 THERMALZONE 4,hourly; !- [J]
Output:Meter:Cumulative,NaturalGas:Zone:BUILDING STORY 1 THERMALZONE 4,hourly; !- [J]
Output:Meter,InteriorEquipment:NaturalGas:Zone:BUILDING STORY 1 THERMALZONE 4,hourly; !- [J]
Output:Meter:Cumulative,InteriorEquipment:NaturalGas:Zone:BUILDING STORY 1 THERMALZONE 4,hourly; !- [J]
Output:Meter,EnergyTransfer:Facility,hourly; !- [J]
Output:Meter:Cumulative,EnergyTransfer:Facility,hourly; !- [J]
Output:Meter,EnergyTransfer:Building,hourly; !- [J]
Output:Meter:Cumulative,EnergyTransfer:Building,hourly; !- [J]
Output:Meter,EnergyTransfer:Zone:BUILDING STORY 1 THERMALZONE,hourly; !- [J]
Output:Meter:Cumulative,EnergyTransfer:Zone:BUILDING STORY 1 THERMALZONE,hourly; !- [J]
Output:Meter,Heating:EnergyTransfer,hourly; !- [J]
Output:Meter:Cumulative,Heating:EnergyTransfer,hourly; !- [J]
Output:Meter,Heating:EnergyTransfer:Zone:BUILDING STORY 1 THERMALZONE,hourly; !- [J]
Output:Meter:Cumulative,Heating:EnergyTransfer:Zone:BUILDING STORY 1 THERMALZONE,hourly; !- [J]
Output:Meter,General:Heating:EnergyTransfer,hourly; !- [J]
Output:Meter:Cumulative,General:Heating:EnergyTransfer,hourly; !- [J]
Output:Meter,Cooling:EnergyTransfer,hourly; !- [J]
Output:Meter:Cumulative,Cooling:EnergyTransfer,hourly; !- [J]
Output:Meter,Cooling:EnergyTransfer:Zone:BUILDING STORY 1 THERMALZONE,hourly; !- [J]
Output:Meter:Cumulative,Cooling:EnergyTransfer:Zone:BUILDING STORY 1 THERMALZONE,hourly; !- [J]
Output:Meter,General:Cooling:EnergyTransfer,hourly; !- [J]
Output:Meter:Cumulative,General:Cooling:EnergyTransfer,hourly; !- [J]
Output:Meter,EnergyTransfer:Zone:BUILDING STORY 1 THERMALZONE 1,hourly; !- [J]
Output:Meter:Cumulative,EnergyTransfer:Zone:BUILDING STORY 1 THERMALZONE 1,hourly; !- [J]
Output:Meter,Heating:EnergyTransfer:Zone:BUILDING STORY 1 THERMALZONE 1,hourly; !- [J]
Output:Meter:Cumulative,Heating:EnergyTransfer:Zone:BUILDING STORY 1 THERMALZONE 1,hourly; !- [J]
Output:Meter,Cooling:EnergyTransfer:Zone:BUILDING STORY 1 THERMALZONE 1,hourly; !- [J]
Output:Meter:Cumulative,Cooling:EnergyTransfer:Zone:BUILDING STORY 1 THERMALZONE 1,hourly; !- [J]
Output:Meter,EnergyTransfer:Zone:BUILDING STORY 1 THERMALZONE 2,hourly; !- [J]
Output:Meter:Cumulative,EnergyTransfer:Zone:BUILDING STORY 1 THERMALZONE 2,hourly; !- [J]
Output:Meter,Heating:EnergyTransfer:Zone:BUILDING STORY 1 THERMALZONE 2,hourly; !- [J]
Output:Meter:Cumulative,Heating:EnergyTransfer:Zone:BUILDING STORY 1 THERMALZONE 2,hourly; !- [J]
Output:Meter,Cooling:EnergyTransfer:Zone:BUILDING STORY 1 THERMALZONE 2,hourly; !- [J]
Output:Meter:Cumulative,Cooling:EnergyTransfer:Zone:BUILDING STORY 1 THERMALZONE 2,hourly; !- [J]
Output:Meter,EnergyTransfer:Zone:BUILDING STORY 1 THERMALZONE 3,hourly; !- [J]
Output:Meter:Cumulative,EnergyTransfer:Zone:BUILDING STORY 1 THERMALZONE 3,hourly; !- [J]
Output:Meter,Heating:EnergyTransfer:Zone:BUILDING STORY 1 THERMALZONE 3,hourly; !- [J]
Output:Meter:Cumulative,Heating:EnergyTransfer:Zone:BUILDING STORY 1 THERMALZONE 3,hourly; !- [J]
Output:Meter,Cooling:EnergyTransfer:Zone:BUILDING STORY 1 THERMALZONE 3,hourly; !- [J]
Output:Meter:Cumulative,Cooling:EnergyTransfer:Zone:BUILDING STORY 1 THERMALZONE 3,hourly; !- [J]
Output:Meter,EnergyTransfer:Zone:BUILDING STORY 1 THERMALZONE 4,hourly; !- [J]
Output:Meter:Cumulative,EnergyTransfer:Zone:BUILDING STORY 1 THERMALZONE 4,hourly; !- [J]
Output:Meter,Heating:EnergyTransfer:Zone:BUILDING STORY 1 THERMALZONE 4,hourly; !- [J]
Output:Meter:Cumulative,Heating:EnergyTransfer:Zone:BUILDING STORY 1 THERMALZONE 4,hourly; !- [J]
Output:Meter,Cooling:EnergyTransfer:Zone:BUILDING STORY 1 THERMALZONE 4,hourly; !- [J]
Output:Meter:Cumulative,Cooling:EnergyTransfer:Zone:BUILDING STORY 1 THERMALZONE 4,hourly; !- [J]
Output:Meter,ElectricityPurchased:Facility,hourly; !- [J]
Output:Meter:Cumulative,ElectricityPurchased:Facility,hourly; !- [J]
Output:Meter,ElectricityPurchased:Plant,hourly; !- [J]
Output:Meter:Cumulative,ElectricityPurchased:Plant,hourly; !- [J]
Output:Meter,Cogeneration:ElectricityPurchased,hourly; !- [J]
Output:Meter:Cumulative,Cogeneration:ElectricityPurchased,hourly; !- [J]
Output:Meter,General:Cogeneration:ElectricityPurchased,hourly; !- [J]
Output:Meter:Cumulative,General:Cogeneration:ElectricityPurchased,hourly; !- [J]
Output:Meter,ElectricitySurplusSold:Facility,hourly; !- [J]
Output:Meter:Cumulative,ElectricitySurplusSold:Facility,hourly; !- [J]
Output:Meter,ElectricitySurplusSold:Plant,hourly; !- [J]
Output:Meter:Cumulative,ElectricitySurplusSold:Plant,hourly; !- [J]
Output:Meter,Cogeneration:ElectricitySurplusSold,hourly; !- [J]
Output:Meter:Cumulative,Cogeneration:ElectricitySurplusSold,hourly; !- [J]
Output:Meter,General:Cogeneration:ElectricitySurplusSold,hourly; !- [J]
Output:Meter:Cumulative,General:Cogeneration:ElectricitySurplusSold,hourly; !- [J]
Output:Meter,ElectricityNet:Facility,hourly; !- [J]
Output:Meter:Cumulative,ElectricityNet:Facility,hourly; !- [J]
Output:Meter,ElectricityNet:Plant,hourly; !- [J]
Output:Meter:Cumulative,ElectricityNet:Plant,hourly; !- [J]
Output:Meter,Cogeneration:ElectricityNet,hourly; !- [J]
Output:Meter:Cumulative,Cogeneration:ElectricityNet,hourly; !- [J]
Output:Meter,General:Cogeneration:ElectricityNet,hourly; !- [J]
Output:Meter:Cumulative,General:Cogeneration:ElectricityNet,hourly; !- [J]
Output:Meter,Electricity:HVAC,hourly; !- [J]
Output:Meter:Cumulative,Electricity:HVAC,hourly; !- [J]
Output:Meter,Fans:Electricity,hourly; !- [J]
Output:Meter:Cumulative,Fans:Electricity,hourly; !- [J]
Output:Meter,General:Fans:Electricity,hourly; !- [J]
Output:Meter:Cumulative,General:Fans:Electricity,hourly; !- [J]
Output:Meter,ExteriorLights:Electricity,hourly; !- [J]
Output:Meter:Cumulative,ExteriorLights:Electricity,hourly; !- [J]
Output:Meter,Building Facades:ExteriorLights:Electricity,hourly; !- [J]
Output:Meter:Cumulative,Building Facades:ExteriorLights:Electricity,hourly; !- [J]
Output:Meter,Main Entries:ExteriorLights:Electricity,hourly; !- [J]
Output:Meter:Cumulative,Main Entries:ExteriorLights:Electricity,hourly; !- [J]
Output:Meter,Other Doors:ExteriorLights:Electricity,hourly; !- [J]
Output:Meter:Cumulative,Other Doors:ExteriorLights:Electricity,hourly; !- [J]
Output:Meter,Parking Areas and Drives:ExteriorLights:Electricity,hourly; !- [J]
Output:Meter:Cumulative,Parking Areas and Drives:ExteriorLights:Electricity,hourly; !- [J]
Output:Meter,EnergyTransfer:HVAC,hourly; !- [J]
Output:Meter:Cumulative,EnergyTransfer:HVAC,hourly; !- [J]
Output:Meter,HeatRecoveryForHeating:EnergyTransfer,hourly; !- [J]
Output:Meter:Cumulative,HeatRecoveryForHeating:EnergyTransfer,hourly; !- [J]
Output:Meter,HeatRecoveryForCooling:EnergyTransfer,hourly; !- [J]
Output:Meter:Cumulative,HeatRecoveryForCooling:EnergyTransfer,hourly; !- [J]
Output:Meter,HeatRecovery:Electricity,hourly; !- [J]
Output:Meter:Cumulative,HeatRecovery:Electricity,hourly; !- [J]
Output:Meter,General:HeatRecovery:Electricity,hourly; !- [J]
Output:Meter:Cumulative,General:HeatRecovery:Electricity,hourly; !- [J]
Output:Meter,CoolingCoils:EnergyTransfer,hourly; !- [J]
Output:Meter:Cumulative,CoolingCoils:EnergyTransfer,hourly; !- [J]
Output:Meter,Cooling:Electricity,hourly; !- [J]
Output:Meter:Cumulative,Cooling:Electricity,hourly; !- [J]
Output:Meter,General:Cooling:Electricity,hourly; !- [J]
Output:Meter:Cumulative,General:Cooling:Electricity,hourly; !- [J]
Output:Meter,HeatingCoils:EnergyTransfer,hourly; !- [J]
Output:Meter:Cumulative,HeatingCoils:EnergyTransfer,hourly; !- [J]
Output:Meter,Heating:Electricity,hourly; !- [J]
Output:Meter:Cumulative,Heating:Electricity,hourly; !- [J]
Output:Meter,General:Heating:Electricity,hourly; !- [J]
Output:Meter:Cumulative,General:Heating:Electricity,hourly; !- [J]
Output:Meter,NaturalGas:HVAC,hourly; !- [J]
Output:Meter:Cumulative,NaturalGas:HVAC,hourly; !- [J]
Output:Meter,Heating:NaturalGas,hourly; !- [J]
Output:Meter:Cumulative,Heating:NaturalGas,hourly; !- [J]
Output:Meter,General:Heating:NaturalGas,hourly; !- [J]
Output:Meter:Cumulative,General:Heating:NaturalGas,hourly; !- [J]
Output:Meter,EnergyTransfer:Plant,hourly; !- [J]
Output:Meter:Cumulative,EnergyTransfer:Plant,hourly; !- [J]
Output:Meter,LoopToLoop:EnergyTransfer,hourly; !- [J]
Output:Meter:Cumulative,LoopToLoop:EnergyTransfer,hourly; !- [J]
Output:Meter,Boilers:EnergyTransfer,hourly; !- [J]
Output:Meter:Cumulative,Boilers:EnergyTransfer,hourly; !- [J]
Output:Meter,NaturalGas:Plant,hourly; !- [J]
Output:Meter:Cumulative,NaturalGas:Plant,hourly; !- [J]
Output:Meter,Electricity:Plant,hourly; !- [J]
Output:Meter:Cumulative,Electricity:Plant,hourly; !- [J]
Output:Meter,Boiler Parasitic:Heating:Electricity,hourly; !- [J]
Output:Meter:Cumulative,Boiler Parasitic:Heating:Electricity,hourly; !- [J]
Output:Meter,Pumps:Electricity,hourly; !- [J]
Output:Meter:Cumulative,Pumps:Electricity,hourly; !- [J]
Output:Meter,General:Pumps:Electricity,hourly; !- [J]
Output:Meter:Cumulative,General:Pumps:Electricity,hourly; !- [J]
Output:Meter,Water:Facility,hourly; !- [m3]
Output:Meter:Cumulative,Water:Facility,hourly; !- [m3]
Output:Meter,Water:Plant,hourly; !- [m3]
Output:Meter:Cumulative,Water:Plant,hourly; !- [m3]
Output:Meter,WaterSystems:Water,hourly; !- [m3]
Output:Meter:Cumulative,WaterSystems:Water,hourly; !- [m3]
Output:Meter,General:WaterSystems:Water,hourly; !- [m3]
Output:Meter:Cumulative,General:WaterSystems:Water,hourly; !- [m3]
Output:Meter,MainsWater:Facility,hourly; !- [m3]
Output:Meter:Cumulative,MainsWater:Facility,hourly; !- [m3]
Output:Meter,MainsWater:Plant,hourly; !- [m3]
Output:Meter:Cumulative,MainsWater:Plant,hourly; !- [m3]
Output:Meter,WaterSystems:MainsWater,hourly; !- [m3]
Output:Meter:Cumulative,WaterSystems:MainsWater,hourly; !- [m3]
Output:Meter,General:WaterSystems:MainsWater,hourly; !- [m3]
Output:Meter:Cumulative,General:WaterSystems:MainsWater,hourly; !- [m3]
Output:Meter,WaterSystems:EnergyTransfer,hourly; !- [J]
Output:Meter:Cumulative,WaterSystems:EnergyTransfer,hourly; !- [J]
Output:Meter,General:WaterSystems:EnergyTransfer,hourly; !- [J]
Output:Meter:Cumulative,General:WaterSystems:EnergyTransfer,hourly; !- [J]
Output:Meter,PlantLoopHeatingDemand:Facility,hourly; !- [J]
Output:Meter:Cumulative,PlantLoopHeatingDemand:Facility,hourly; !- [J]
Output:Meter,PlantLoopHeatingDemand:Plant,hourly; !- [J]
Output:Meter:Cumulative,PlantLoopHeatingDemand:Plant,hourly; !- [J]
Output:Meter,WaterSystems:PlantLoopHeatingDemand,hourly; !- [J]
Output:Meter:Cumulative,WaterSystems:PlantLoopHeatingDemand,hourly; !- [J]
Output:Meter,General:WaterSystems:PlantLoopHeatingDemand,hourly; !- [J]
Output:Meter:Cumulative,General:WaterSystems:PlantLoopHeatingDemand,hourly; !- [J]
Output:Meter,Booster:WaterSystems:PlantLoopHeatingDemand,hourly; !- [J]
Output:Meter:Cumulative,Booster:WaterSystems:PlantLoopHeatingDemand,hourly; !- [J]
Output:Meter,WaterSystems:Electricity,hourly; !- [J]
Output:Meter:Cumulative,WaterSystems:Electricity,hourly; !- [J]
Output:Meter,Booster:WaterSystems:Electricity,hourly; !- [J]
Output:Meter:Cumulative,Booster:WaterSystems:Electricity,hourly; !- [J]
Output:Meter,Booster:WaterSystems:Water,hourly; !- [m3]
Output:Meter:Cumulative,Booster:WaterSystems:Water,hourly; !- [m3]
Output:Meter,Booster:WaterSystems:MainsWater,hourly; !- [m3]
Output:Meter:Cumulative,Booster:WaterSystems:MainsWater,hourly; !- [m3]
Output:Meter,WaterSystems:NaturalGas,hourly; !- [J]
Output:Meter:Cumulative,WaterSystems:NaturalGas,hourly; !- [J]
Output:Meter,General:WaterSystems:NaturalGas,hourly; !- [J]
Output:Meter:Cumulative,General:WaterSystems:NaturalGas,hourly; !- [J]
Output:Meter,Carbon Equivalent:Facility,hourly; !- [kg]
Output:Meter:Cumulative,Carbon Equivalent:Facility,hourly; !- [kg]
Output:Meter,CarbonEquivalentEmissions:Carbon Equivalent,hourly; !- [kg]
Output:Meter:Cumulative,CarbonEquivalentEmissions:Carbon Equivalent,hourly; !- [kg]
