Program Version,EnergyPlus, Version 9.4.0-998c4b761e, YMD=2021.03.02 09:47
! This file shows details about the branches, nodes, and other
! elements of the flow connections.
! This file is intended for use in "debugging" potential problems
! that may also be detected by the program, but may be more easily
! identified by "eye".
! This file is also intended to support software which draws a
! schematic diagram of the HVAC system.
! ===============================================================
! #Nodes,<Number of Unique Nodes>
 #Nodes,137
! <Node>,<NodeNumber>,<Node Name>,<Node Fluid Type>,<# Times Node Referenced After Definition>
 Node,1,BUILDING STORY 1 THERMALZONE PSZ-AC DIFFUSER OUTLET AIR NODE,Air,4
 Node,2,BUILDING STORY 1 THERMALZONE RETURN AIR NODE,Air,2
 Node,3,BUILDING STORY 1 THERMALZONE 1 PSZ-AC DIFFUSER OUTLET AIR NODE,Air,4
 Node,4,BUILDING STORY 1 THERMALZONE 1 RETURN AIR NODE,Air,2
 Node,5,BUILDING STORY 1 THERMALZONE 2 PSZ-AC DIFFUSER OUTLET AIR NODE,Air,4
 Node,6,BUILDING STORY 1 THERMALZONE 2 RETURN AIR NODE,Air,2
 Node,7,BUILDING STORY 1 THERMALZONE 3 PSZ-AC DIFFUSER OUTLET AIR NODE,Air,4
 Node,8,BUILDING STORY 1 THERMALZONE 3 RETURN AIR NODE,Air,2
 Node,9,BUILDING STORY 1 THERMALZONE 4 PSZ-AC DIFFUSER OUTLET AIR NODE,Air,4
 Node,10,BUILDING STORY 1 THERMALZONE 4 RETURN AIR NODE,Air,2
 Node,11,BUILDING STORY 1 THERMALZONE 1 PSZ-AC SUPPLY OUTLET NODE,Air,12
 Node,12,BUILDING STORY 1 THERMALZONE 1 PSZ-AC DEMAND INLET NODE,Air,3
 Node,13,BUILDING STORY 1 THERMALZONE 2 PSZ-AC SUPPLY OUTLET NODE,Air,12
 Node,14,BUILDING STORY 1 THERMALZONE 2 PSZ-AC DEMAND INLET NODE,Air,3
 Node,15,BUILDING STORY 1 THERMALZONE 3 PSZ-AC SUPPLY OUTLET NODE,Air,12
 Node,16,BUILDING STORY 1 THERMALZONE 3 PSZ-AC DEMAND INLET NODE,Air,3
 Node,17,BUILDING STORY 1 THERMALZONE 4 PSZ-AC SUPPLY OUTLET NODE,Air,12
 Node,18,BUILDING STORY 1 THERMALZONE 4 PSZ-AC DEMAND INLET NODE,Air,3
 Node,19,BUILDING STORY 1 THERMALZONE PSZ-AC SUPPLY OUTLET NODE,Air,12
 Node,20,BUILDING STORY 1 THERMALZONE PSZ-AC DEMAND INLET NODE,Air,3
 Node,21,BUILDING STORY 1 THERMALZONE 1 PSZ-AC SUPPLY INLET NODE,Air,4
 Node,22,BUILDING STORY 1 THERMALZONE 1 PSZ-AC MIXED AIR NODE,Air,8
 Node,23,BUILDING STORY 1 THERMALZONE 1 PSZ-AC 1SPD DX AC CLG COIL OUTLET AIR NODE,Air,6
 Node,24,BUILDING STORY 1 THERMALZONE 1 PSZ-AC GAS HTG COIL OUTLET AIR NODE,Air,5
 Node,25,BUILDING STORY 1 THERMALZONE 1 PSZ-AC ELECTRIC BACKUP HTG COIL OUTLET AIR NODE,Air,9
 Node,26,BUILDING STORY 1 THERMALZONE 2 PSZ-AC SUPPLY INLET NODE,Air,4
 Node,27,BUILDING STORY 1 THERMALZONE 2 PSZ-AC MIXED AIR NODE,Air,8
 Node,28,BUILDING STORY 1 THERMALZONE 2 PSZ-AC 1SPD DX AC CLG COIL OUTLET AIR NODE,Air,6
 Node,29,BUILDING STORY 1 THERMALZONE 2 PSZ-AC GAS HTG COIL OUTLET AIR NODE,Air,5
 Node,30,BUILDING STORY 1 THERMALZONE 2 PSZ-AC ELECTRIC BACKUP HTG COIL OUTLET AIR NODE,Air,9
 Node,31,BUILDING STORY 1 THERMALZONE 3 PSZ-AC SUPPLY INLET NODE,Air,4
 Node,32,BUILDING STORY 1 THERMALZONE 3 PSZ-AC MIXED AIR NODE,Air,8
 Node,33,BUILDING STORY 1 THERMALZONE 3 PSZ-AC 1SPD DX AC CLG COIL OUTLET AIR NODE,Air,6
 Node,34,BUILDING STORY 1 THERMALZONE 3 PSZ-AC GAS HTG COIL OUTLET AIR NODE,Air,5
 Node,35,BUILDING STORY 1 THERMALZONE 3 PSZ-AC ELECTRIC BACKUP HTG COIL OUTLET AIR NODE,Air,9
 Node,36,BUILDING STORY 1 THERMALZONE 4 PSZ-AC SUPPLY INLET NODE,Air,4
 Node,37,BUILDING STORY 1 THERMALZONE 4 PSZ-AC MIXED AIR NODE,Air,8
 Node,38,BUILDING STORY 1 THERMALZONE 4 PSZ-AC 1SPD DX AC CLG COIL OUTLET AIR NODE,Air,6
 Node,39,BUILDING STORY 1 THERMALZONE 4 PSZ-AC GAS HTG COIL OUTLET AIR NODE,Air,5
 Node,40,BUILDING STORY 1 THERMALZONE 4 PSZ-AC ELECTRIC BACKUP HTG COIL OUTLET AIR NODE,Air,9
 Node,41,BUILDING STORY 1 THERMALZONE PSZ-AC SUPPLY INLET NODE,Air,4
 Node,42,BUILDING STORY 1 THERMALZONE PSZ-AC MIXED AIR NODE,Air,8
 Node,43,BUILDING STORY 1 THERMALZONE PSZ-AC 1SPD DX AC CLG COIL OUTLET AIR NODE,Air,6
 Node,44,BUILDING STORY 1 THERMALZONE PSZ-AC GAS HTG COIL OUTLET AIR NODE,Air,5
 Node,45,BUILDING STORY 1 THERMALZONE PSZ-AC ELECTRIC BACKUP HTG COIL OUTLET AIR NODE,Air,9
 Node,46,FULLSERVICERESTAURANT KITCHEN - 90.1-2013 SERVICE WATER BOOSTER LOOP SUPPLY INLET NODE,Water,2
 Node,47,BOOSTER WATER LOOP PUMP INLET WATER NODE,Water,3
 Node,48,BOOSTER WATER LOOP PUMP OUTLET WATER NODE,Water,1
 Node,49,6.0GAL ELECTRICITY BOOSTER WATER HEATER - 65KBTU/HR SUPPLY INLET WATER NODE,Water,1
 Node,50,6.0GAL ELECTRICITY BOOSTER WATER HEATER - 65KBTU/HR SUPPLY OUTLET WATER NODE,Water,1
 Node,51,PIPE ADIABATIC 5 INLET WATER NODE,Water,1
 Node,52,PIPE ADIABATIC 5 OUTLET WATER NODE,Water,1
 Node,53,PIPE ADIABATIC 7 INLET WATER NODE,Water,1
 Node,54,FULLSERVICERESTAURANT KITCHEN - 90.1-2013 SERVICE WATER BOOSTER LOOP SUPPLY OUTLET NODE,Water,5
 Node,55,FULLSERVICERESTAURANT KITCHEN - 90.1-2013 SERVICE WATER BOOSTER LOOP DEMAND INLET NODE,Water,2
 Node,56,PIPE ADIABATIC 8 OUTLET WATER NODE,Water,1
 Node,57,PIPE ADIABATIC 6 INLET WATER NODE,Water,1
 Node,58,PIPE ADIABATIC 6 OUTLET WATER NODE,Water,1
 Node,59,BOOSTER FULLSERVICERESTAURANT KITCHEN - 90.1-2013 WUC 5.39GPM AT 180F INLET WATER NODE,Water,1
 Node,60,BOOSTER FULLSERVICERESTAURANT KITCHEN - 90.1-2013 WUC 5.39GPM AT 180F OUTLET WATER NODE,Water,1
 Node,61,FULLSERVICERESTAURANT KITCHEN - 90.1-2013 SERVICE WATER BOOSTER LOOP DEMAND BYPASS PIPE INLET NODE,Water,1
 Node,62,FULLSERVICERESTAURANT KITCHEN - 90.1-2013 SERVICE WATER BOOSTER LOOP DEMAND BYPASS PIPE OUTLET NODE,Water,1
 Node,63,PIPE ADIABATIC 9 INLET WATER NODE,Water,1
 Node,64,FULLSERVICERESTAURANT KITCHEN - 90.1-2013 SERVICE WATER BOOSTER LOOP DEMAND OUTLET NODE,Water,2
 Node,65,FULLSERVICERESTAURANT KITCHEN - 90.1-2013 SERVICE WATER LOOP SUPPLY INLET NODE,Water,2
 Node,66,FULLSERVICERESTAURANT KITCHEN - 90.1-2013 SERVICE WATER LOOP WATER MAINS PRESSURE DRIVEN OUTLET WATER NODE,Water,1
 Node,67,340GAL NATURALGAS WATER HEATER - 340KBTU/HR SUPPLY INLET WATER NODE,Water,1
 Node,68,340GAL NATURALGAS WATER HEATER - 340KBTU/HR SUPPLY OUTLET WATER NODE,Water,1
 Node,69,PIPE ADIABATIC 1 INLET WATER NODE,Water,1
 Node,70,PIPE ADIABATIC 1 OUTLET WATER NODE,Water,1
 Node,71,PIPE ADIABATIC 3 INLET WATER NODE,Water,1
 Node,72,FULLSERVICERESTAURANT KITCHEN - 90.1-2013 SERVICE WATER LOOP SUPPLY OUTLET NODE,Water,4
 Node,73,FULLSERVICERESTAURANT KITCHEN - 90.1-2013 SERVICE WATER LOOP DEMAND INLET NODE,Water,2
 Node,74,FULLSERVICERESTAURANT KITCHEN - 90.1-2013 SERVICE WATER LOOP PIPE 20.0FT OUTLET WATER NODE,Water,1
 Node,75,PIPE ADIABATIC 2 INLET WATER NODE,Water,1
 Node,76,PIPE ADIABATIC 2 OUTLET WATER NODE,Water,1
 Node,77,FULLSERVICERESTAURANT KITCHEN - 90.1-2013 WUC 3.6GPM AT 140F INLET WATER NODE,Water,1
 Node,78,FULLSERVICERESTAURANT KITCHEN - 90.1-2013 WUC 3.6GPM AT 140F OUTLET WATER NODE,Water,1
 Node,79,HX FOR BOOSTER WATER HEATING DEMAND INLET WATER NODE,Water,1
 Node,80,MAINS WATER MAKEUP FOR SWH BOOSTER INLET WATER NODE,Water,3
 Node,81,MAINS WATER MAKEUP FOR SWH BOOSTER OUTLET WATER NODE,Water,1
 Node,82,FULLSERVICERESTAURANT KITCHEN - 90.1-2013 SERVICE WATER LOOP DEMAND BYPASS PIPE INLET NODE,Water,1
 Node,83,FULLSERVICERESTAURANT KITCHEN - 90.1-2013 SERVICE WATER LOOP DEMAND BYPASS PIPE OUTLET NODE,Water,1
 Node,84,PIPE ADIABATIC 4 INLET WATER NODE,Water,1
 Node,85,FULLSERVICERESTAURANT KITCHEN - 90.1-2013 SERVICE WATER LOOP DEMAND OUTLET NODE,Water,2
 Node,86,HOT WATER LOOP SUPPLY INLET NODE,Water,2
 Node,87,HOT WATER LOOP PUMP OUTLET WATER NODE,Water,1
 Node,88,BOILER INLET WATER NODE,Water,1
 Node,89,BOILER OUTLET WATER NODE,Water,1
 Node,90,HOT WATER LOOP SUPPLY EQUIPMENT BYPASS INLET WATER NODE,Water,1
 Node,91,HOT WATER LOOP SUPPLY EQUIPMENT BYPASS OUTLET WATER NODE,Water,1
 Node,92,HOT WATER LOOP SUPPLY OUTLET INLET WATER NODE,Water,1
 Node,93,HOT WATER LOOP SUPPLY OUTLET NODE,Water,4
 Node,94,HOT WATER LOOP DEMAND INLET NODE,Water,2
 Node,95,HOT WATER LOOP DEMAND INLET OUTLET WATER NODE,Water,1
 Node,96,HOT WATER LOOP COIL BYPASS INLET WATER NODE,Water,1
 Node,97,HOT WATER LOOP COIL BYPASS OUTLET WATER NODE,Water,1
 Node,98,HOT WATER LOOP DEMAND BYPASS PIPE INLET NODE,Water,1
 Node,99,HOT WATER LOOP DEMAND BYPASS PIPE OUTLET NODE,Water,1
 Node,100,HOT WATER LOOP DEMAND OUTLET INLET WATER NODE,Water,1
 Node,101,HOT WATER LOOP DEMAND OUTLET NODE,Water,2
 Node,102,BUILDING STORY 1 THERMALZONE ZONE AIR NODE,Air,1
 Node,103,BUILDING STORY 1 THERMALZONE 1 ZONE AIR NODE,Air,1
 Node,104,BUILDING STORY 1 THERMALZONE 2 ZONE AIR NODE,Air,1
 Node,105,BUILDING STORY 1 THERMALZONE 3 ZONE AIR NODE,Air,1
 Node,106,BUILDING STORY 1 THERMALZONE 4 ZONE AIR NODE,Air,1
 Node,107,BUILDING STORY 1 THERMALZONE 1 PSZ-AC DEMAND OUTLET NODE,Air,2
 Node,108,BUILDING STORY 1 THERMALZONE 2 PSZ-AC DEMAND OUTLET NODE,Air,2
 Node,109,BUILDING STORY 1 THERMALZONE 3 PSZ-AC DEMAND OUTLET NODE,Air,2
 Node,110,BUILDING STORY 1 THERMALZONE 4 PSZ-AC DEMAND OUTLET NODE,Air,2
 Node,111,BUILDING STORY 1 THERMALZONE PSZ-AC DEMAND OUTLET NODE,Air,2
 Node,112,BUILDING STORY 1 THERMALZONE 1 PSZ-AC OUTDOOR AIR NODE,Air,3
 Node,113,BUILDING STORY 1 THERMALZONE 2 PSZ-AC OUTDOOR AIR NODE,Air,3
 Node,114,BUILDING STORY 1 THERMALZONE 3 PSZ-AC OUTDOOR AIR NODE,Air,3
 Node,115,BUILDING STORY 1 THERMALZONE 4 PSZ-AC OUTDOOR AIR NODE,Air,3
 Node,116,BUILDING STORY 1 THERMALZONE PSZ-AC OUTDOOR AIR NODE,Air,3
 Node,117,MODEL OUTDOOR AIR NODE,Air,0
 Node,118,NODE 2,Air,2
 Node,119,NODE 4,Air,2
 Node,120,NODE 6,Air,2
 Node,121,NODE 8,Air,2
 Node,122,NODE 10,Air,2
 Node,123,BUILDING STORY 1 THERMALZONE 1 PSZ-AC DIFFUSER INLET AIR NODE,Air,1
 Node,124,BUILDING STORY 1 THERMALZONE 2 PSZ-AC DIFFUSER INLET AIR NODE,Air,1
 Node,125,BUILDING STORY 1 THERMALZONE 3 PSZ-AC DIFFUSER INLET AIR NODE,Air,1
 Node,126,BUILDING STORY 1 THERMALZONE 4 PSZ-AC DIFFUSER INLET AIR NODE,Air,1
 Node,127,BUILDING STORY 1 THERMALZONE PSZ-AC DIFFUSER INLET AIR NODE,Air,1
 Node,128,NODE 3,Air,2
 Node,129,NODE 5,Air,2
 Node,130,NODE 7,Air,2
 Node,131,NODE 9,Air,2
 Node,132,NODE 11,Air,2
 Node,133,BUILDING STORY 1 THERMALZONE 1 PSZ-AC RELIEF AIR NODE,Air,0
 Node,134,BUILDING STORY 1 THERMALZONE 2 PSZ-AC RELIEF AIR NODE,Air,0
 Node,135,BUILDING STORY 1 THERMALZONE 3 PSZ-AC RELIEF AIR NODE,Air,0
 Node,136,BUILDING STORY 1 THERMALZONE 4 PSZ-AC RELIEF AIR NODE,Air,0
 Node,137,BUILDING STORY 1 THERMALZONE PSZ-AC RELIEF AIR NODE,Air,0
! ===============================================================
! Suspicious nodes have 0 references.  It is normal for some nodes, however.
! Listing nodes with 0 references (culled from previous list):
! <Suspicious Node>,<NodeNumber>,<Node Name>,<Node Fluid Type>,<# Times Node Referenced After Definition>
 Suspicious Node,117,MODEL OUTDOOR AIR NODE,Air,0
 Suspicious Node,133,BUILDING STORY 1 THERMALZONE 1 PSZ-AC RELIEF AIR NODE,Air,0
 Suspicious Node,134,BUILDING STORY 1 THERMALZONE 2 PSZ-AC RELIEF AIR NODE,Air,0
 Suspicious Node,135,BUILDING STORY 1 THERMALZONE 3 PSZ-AC RELIEF AIR NODE,Air,0
 Suspicious Node,136,BUILDING STORY 1 THERMALZONE 4 PSZ-AC RELIEF AIR NODE,Air,0
 Suspicious Node,137,BUILDING STORY 1 THERMALZONE PSZ-AC RELIEF AIR NODE,Air,0
! ===============================================================
! <#Branch Lists>,<Number of Branch Lists>
 #Branch Lists,11
! <Branch List>,<Branch List Count>,<Branch List Name>,<Loop Name>,<Loop Type>,<Number of Branches>
! <Branch>,<Branch Count>,<Branch Name>,<Loop Name>,<Loop Type>,<Branch Inlet Node Name>,<Branch Outlet Node Name>
 Branch List,1,BUILDING STORY 1 THERMALZONE 1 PSZ-AC SUPPLY BRANCHES,BUILDING STORY 1 THERMALZONE 1 PSZ-AC,Air,1
   Branch,1,BUILDING STORY 1 THERMALZONE 1 PSZ-AC MAIN BRANCH,BUILDING STORY 1 THERMALZONE 1 PSZ-AC,Air,BUILDING STORY 1 THERMALZONE 1 PSZ-AC SUPPLY INLET NODE,BUILDING STORY 1 THERMALZONE 1 PSZ-AC SUPPLY OUTLET NODE
 Branch List,2,BUILDING STORY 1 THERMALZONE 2 PSZ-AC SUPPLY BRANCHES,BUILDING STORY 1 THERMALZONE 2 PSZ-AC,Air,1
   Branch,1,BUILDING STORY 1 THERMALZONE 2 PSZ-AC MAIN BRANCH,BUILDING STORY 1 THERMALZONE 2 PSZ-AC,Air,BUILDING STORY 1 THERMALZONE 2 PSZ-AC SUPPLY INLET NODE,BUILDING STORY 1 THERMALZONE 2 PSZ-AC SUPPLY OUTLET NODE
 Branch List,3,BUILDING STORY 1 THERMALZONE 3 PSZ-AC SUPPLY BRANCHES,BUILDING STORY 1 THERMALZONE 3 PSZ-AC,Air,1
   Branch,1,BUILDING STORY 1 THERMALZONE 3 PSZ-AC MAIN BRANCH,BUILDING STORY 1 THERMALZONE 3 PSZ-AC,Air,BUILDING STORY 1 THERMALZONE 3 PSZ-AC SUPPLY INLET NODE,BUILDING STORY 1 THERMALZONE 3 PSZ-AC SUPPLY OUTLET NODE
 Branch List,4,BUILDING STORY 1 THERMALZONE 4 PSZ-AC SUPPLY BRANCHES,BUILDING STORY 1 THERMALZONE 4 PSZ-AC,Air,1
   Branch,1,BUILDING STORY 1 THERMALZONE 4 PSZ-AC MAIN BRANCH,BUILDING STORY 1 THERMALZONE 4 PSZ-AC,Air,BUILDING STORY 1 THERMALZONE 4 PSZ-AC SUPPLY INLET NODE,BUILDING STORY 1 THERMALZONE 4 PSZ-AC SUPPLY OUTLET NODE
 Branch List,5,BUILDING STORY 1 THERMALZONE PSZ-AC SUPPLY BRANCHES,BUILDING STORY 1 THERMALZONE PSZ-AC,Air,1
   Branch,1,BUILDING STORY 1 THERMALZONE PSZ-AC MAIN BRANCH,BUILDING STORY 1 THERMALZONE PSZ-AC,Air,BUILDING STORY 1 THERMALZONE PSZ-AC SUPPLY INLET NODE,BUILDING STORY 1 THERMALZONE PSZ-AC SUPPLY OUTLET NODE
 Branch List,6,FULLSERVICERESTAURANT KITCHEN - 90.1-2013 SERVICE WATER BOOSTER LOOP SUPPLY BRANCHES,FULLSERVICERESTAURANT KITCHEN - 90.1-2013 SERVICE WATER BOOSTER LOOP,Plant Supply,4
   Branch,1,FULLSERVICERESTAURANT KITCHEN - 90.1-2013 SERVICE WATER BOOSTER LOOP SUPPLY INLET BRANCH,FULLSERVICERESTAURANT KITCHEN - 90.1-2013 SERVICE WATER BOOSTER LOOP,Plant Supply,FULLSERVICERESTAURANT KITCHEN - 90.1-2013 SERVICE WATER BOOSTER LOOP SUPPLY INLET NODE,BOOSTER WATER LOOP PUMP OUTLET WATER NODE
   Branch,2,FULLSERVICERESTAURANT KITCHEN - 90.1-2013 SERVICE WATER BOOSTER LOOP SUPPLY BRANCH 1,FULLSERVICERESTAURANT KITCHEN - 90.1-2013 SERVICE WATER BOOSTER LOOP,Plant Supply,6.0GAL ELECTRICITY BOOSTER WATER HEATER - 65KBTU/HR SUPPLY INLET WATER NODE,6.0GAL ELECTRICITY BOOSTER WATER HEATER - 65KBTU/HR SUPPLY OUTLET WATER NODE
   Branch,3,FULLSERVICERESTAURANT KITCHEN - 90.1-2013 SERVICE WATER BOOSTER LOOP SUPPLY BRANCH 2,FULLSERVICERESTAURANT KITCHEN - 90.1-2013 SERVICE WATER BOOSTER LOOP,Plant Supply,PIPE ADIABATIC 5 INLET WATER NODE,PIPE ADIABATIC 5 OUTLET WATER NODE
   Branch,4,FULLSERVICERESTAURANT KITCHEN - 90.1-2013 SERVICE WATER BOOSTER LOOP SUPPLY OUTLET BRANCH,FULLSERVICERESTAURANT KITCHEN - 90.1-2013 SERVICE WATER BOOSTER LOOP,Plant Supply,PIPE ADIABATIC 7 INLET WATER NODE,FULLSERVICERESTAURANT KITCHEN - 90.1-2013 SERVICE WATER BOOSTER LOOP SUPPLY OUTLET NODE
 Branch List,7,FULLSERVICERESTAURANT KITCHEN - 90.1-2013 SERVICE WATER BOOSTER LOOP DEMAND BRANCHES,FULLSERVICERESTAURANT KITCHEN - 90.1-2013 SERVICE WATER BOOSTER LOOP,Plant Demand,5
   Branch,1,FULLSERVICERESTAURANT KITCHEN - 90.1-2013 SERVICE WATER BOOSTER LOOP DEMAND INLET BRANCH,FULLSERVICERESTAURANT KITCHEN - 90.1-2013 SERVICE WATER BOOSTER LOOP,Plant Demand,FULLSERVICERESTAURANT KITCHEN - 90.1-2013 SERVICE WATER BOOSTER LOOP DEMAND INLET NODE,PIPE ADIABATIC 8 OUTLET WATER NODE
   Branch,2,FULLSERVICERESTAURANT KITCHEN - 90.1-2013 SERVICE WATER BOOSTER LOOP DEMAND BRANCH 1,FULLSERVICERESTAURANT KITCHEN - 90.1-2013 SERVICE WATER BOOSTER LOOP,Plant Demand,PIPE ADIABATIC 6 INLET WATER NODE,PIPE ADIABATIC 6 OUTLET WATER NODE
   Branch,3,FULLSERVICERESTAURANT KITCHEN - 90.1-2013 SERVICE WATER BOOSTER LOOP DEMAND BRANCH 2,FULLSERVICERESTAURANT KITCHEN - 90.1-2013 SERVICE WATER BOOSTER LOOP,Plant Demand,BOOSTER FULLSERVICERESTAURANT KITCHEN - 90.1-2013 WUC 5.39GPM AT 180F INLET WATER NODE,BOOSTER FULLSERVICERESTAURANT KITCHEN - 90.1-2013 WUC 5.39GPM AT 180F OUTLET WATER NODE
   Branch,4,FULLSERVICERESTAURANT KITCHEN - 90.1-2013 SERVICE WATER BOOSTER LOOP DEMAND BYPASS BRANCH,FULLSERVICERESTAURANT KITCHEN - 90.1-2013 SERVICE WATER BOOSTER LOOP,Plant Demand,FULLSERVICERESTAURANT KITCHEN - 90.1-2013 SERVICE WATER BOOSTER LOOP DEMAND BYPASS PIPE INLET NODE,FULLSERVICERESTAURANT KITCHEN - 90.1-2013 SERVICE WATER BOOSTER LOOP DEMAND BYPASS PIPE OUTLET NODE
   Branch,5,FULLSERVICERESTAURANT KITCHEN - 90.1-2013 SERVICE WATER BOOSTER LOOP DEMAND OUTLET BRANCH,FULLSERVICERESTAURANT KITCHEN - 90.1-2013 SERVICE WATER BOOSTER LOOP,Plant Demand,PIPE ADIABATIC 9 INLET WATER NODE,FULLSERVICERESTAURANT KITCHEN - 90.1-2013 SERVICE WATER BOOSTER LOOP DEMAND OUTLET NODE
 Branch List,8,FULLSERVICERESTAURANT KITCHEN - 90.1-2013 SERVICE WATER LOOP SUPPLY BRANCHES,FULLSERVICERESTAURANT KITCHEN - 90.1-2013 SERVICE WATER LOOP,Plant Supply,4
   Branch,1,FULLSERVICERESTAURANT KITCHEN - 90.1-2013 SERVICE WATER LOOP SUPPLY INLET BRANCH,FULLSERVICERESTAURANT KITCHEN - 90.1-2013 SERVICE WATER LOOP,Plant Supply,FULLSERVICERESTAURANT KITCHEN - 90.1-2013 SERVICE WATER LOOP SUPPLY INLET NODE,FULLSERVICERESTAURANT KITCHEN - 90.1-2013 SERVICE WATER LOOP WATER MAINS PRESSURE DRIVEN OUTLET WATER NODE
   Branch,2,FULLSERVICERESTAURANT KITCHEN - 90.1-2013 SERVICE WATER LOOP SUPPLY BRANCH 1,FULLSERVICERESTAURANT KITCHEN - 90.1-2013 SERVICE WATER LOOP,Plant Supply,340GAL NATURALGAS WATER HEATER - 340KBTU/HR SUPPLY INLET WATER NODE,340GAL NATURALGAS WATER HEATER - 340KBTU/HR SUPPLY OUTLET WATER NODE
   Branch,3,FULLSERVICERESTAURANT KITCHEN - 90.1-2013 SERVICE WATER LOOP SUPPLY BRANCH 2,FULLSERVICERESTAURANT KITCHEN - 90.1-2013 SERVICE WATER LOOP,Plant Supply,PIPE ADIABATIC 1 INLET WATER NODE,PIPE ADIABATIC 1 OUTLET WATER NODE
   Branch,4,FULLSERVICERESTAURANT KITCHEN - 90.1-2013 SERVICE WATER LOOP SUPPLY OUTLET BRANCH,FULLSERVICERESTAURANT KITCHEN - 90.1-2013 SERVICE WATER LOOP,Plant Supply,PIPE ADIABATIC 3 INLET WATER NODE,FULLSERVICERESTAURANT KITCHEN - 90.1-2013 SERVICE WATER LOOP SUPPLY OUTLET NODE
 Branch List,9,FULLSERVICERESTAURANT KITCHEN - 90.1-2013 SERVICE WATER LOOP DEMAND BRANCHES,FULLSERVICERESTAURANT KITCHEN - 90.1-2013 SERVICE WATER LOOP,Plant Demand,6
   Branch,1,FULLSERVICERESTAURANT KITCHEN - 90.1-2013 SERVICE WATER LOOP DEMAND INLET BRANCH,FULLSERVICERESTAURANT KITCHEN - 90.1-2013 SERVICE WATER LOOP,Plant Demand,FULLSERVICERESTAURANT KITCHEN - 90.1-2013 SERVICE WATER LOOP DEMAND INLET NODE,FULLSERVICERESTAURANT KITCHEN - 90.1-2013 SERVICE WATER LOOP PIPE 20.0FT OUTLET WATER NODE
   Branch,2,FULLSERVICERESTAURANT KITCHEN - 90.1-2013 SERVICE WATER LOOP DEMAND BRANCH 1,FULLSERVICERESTAURANT KITCHEN - 90.1-2013 SERVICE WATER LOOP,Plant Demand,PIPE ADIABATIC 2 INLET WATER NODE,PIPE ADIABATIC 2 OUTLET WATER NODE
   Branch,3,FULLSERVICERESTAURANT KITCHEN - 90.1-2013 SERVICE WATER LOOP DEMAND BRANCH 2,FULLSERVICERESTAURANT KITCHEN - 90.1-2013 SERVICE WATER LOOP,Plant Demand,FULLSERVICERESTAURANT KITCHEN - 90.1-2013 WUC 3.6GPM AT 140F INLET WATER NODE,FULLSERVICERESTAURANT KITCHEN - 90.1-2013 WUC 3.6GPM AT 140F OUTLET WATER NODE
   Branch,4,FULLSERVICERESTAURANT KITCHEN - 90.1-2013 SERVICE WATER LOOP DEMAND BRANCH 3,FULLSERVICERESTAURANT KITCHEN - 90.1-2013 SERVICE WATER LOOP,Plant Demand,HX FOR BOOSTER WATER HEATING DEMAND INLET WATER NODE,MAINS WATER MAKEUP FOR SWH BOOSTER OUTLET WATER NODE
   Branch,5,FULLSERVICERESTAURANT KITCHEN - 90.1-2013 SERVICE WATER LOOP DEMAND BYPASS BRANCH,FULLSERVICERESTAURANT KITCHEN - 90.1-2013 SERVICE WATER LOOP,Plant Demand,FULLSERVICERESTAURANT KITCHEN - 90.1-2013 SERVICE WATER LOOP DEMAND BYPASS PIPE INLET NODE,FULLSERVICERESTAURANT KITCHEN - 90.1-2013 SERVICE WATER LOOP DEMAND BYPASS PIPE OUTLET NODE
   Branch,6,FULLSERVICERESTAURANT KITCHEN - 90.1-2013 SERVICE WATER LOOP DEMAND OUTLET BRANCH,FULLSERVICERESTAURANT KITCHEN - 90.1-2013 SERVICE WATER LOOP,Plant Demand,PIPE ADIABATIC 4 INLET WATER NODE,FULLSERVICERESTAURANT KITCHEN - 90.1-2013 SERVICE WATER LOOP DEMAND OUTLET NODE
 Branch List,10,HOT WATER LOOP SUPPLY BRANCHES,HOT WATER LOOP,Plant Supply,4
   Branch,1,HOT WATER LOOP SUPPLY INLET BRANCH,HOT WATER LOOP,Plant Supply,HOT WATER LOOP SUPPLY INLET NODE,HOT WATER LOOP PUMP OUTLET WATER NODE
   Branch,2,HOT WATER LOOP SUPPLY BRANCH 1,HOT WATER LOOP,Plant Supply,BOILER INLET WATER NODE,BOILER OUTLET WATER NODE
   Branch,3,HOT WATER LOOP SUPPLY BRANCH 2,HOT WATER LOOP,Plant Supply,HOT WATER LOOP SUPPLY EQUIPMENT BYPASS INLET WATER NODE,HOT WATER LOOP SUPPLY EQUIPMENT BYPASS OUTLET WATER NODE
   Branch,4,HOT WATER LOOP SUPPLY OUTLET BRANCH,HOT WATER LOOP,Plant Supply,HOT WATER LOOP SUPPLY OUTLET INLET WATER NODE,HOT WATER LOOP SUPPLY OUTLET NODE
 Branch List,11,HOT WATER LOOP DEMAND BRANCHES,HOT WATER LOOP,Plant Demand,4
   Branch,1,HOT WATER LOOP DEMAND INLET BRANCH,HOT WATER LOOP,Plant Demand,HOT WATER LOOP DEMAND INLET NODE,HOT WATER LOOP DEMAND INLET OUTLET WATER NODE
   Branch,2,HOT WATER LOOP DEMAND BRANCH 1,HOT WATER LOOP,Plant Demand,HOT WATER LOOP COIL BYPASS INLET WATER NODE,HOT WATER LOOP COIL BYPASS OUTLET WATER NODE
   Branch,3,HOT WATER LOOP DEMAND BYPASS BRANCH,HOT WATER LOOP,Plant Demand,HOT WATER LOOP DEMAND BYPASS PIPE INLET NODE,HOT WATER LOOP DEMAND BYPASS PIPE OUTLET NODE
   Branch,4,HOT WATER LOOP DEMAND OUTLET BRANCH,HOT WATER LOOP,Plant Demand,HOT WATER LOOP DEMAND OUTLET INLET WATER NODE,HOT WATER LOOP DEMAND OUTLET NODE
! ===============================================================
! <#Supply Air Paths>,<Number of Supply Air Paths>
 #Supply Air Paths,5
! <Supply Air Path>,<Supply Air Path Count>,<Supply Air Path Name>,<AirLoopHVAC Name>
! <#Components on Supply Air Path>,<Number of Components>
! <Supply Air Path Component>,<Component Count>,<Component Type>,<Component Name>,<AirLoopHVAC Name>
! <#Outlet Nodes on Supply Air Path Component>,<Number of Nodes>
! <Supply Air Path Component Nodes>,<Node Count>,<Component Type>,<Component Name>,<Inlet Node Name>,<Outlet Node Name>,<AirLoopHVAC Name>
 Supply Air Path,1,BUILDING STORY 1 THERMALZONE 1 PSZ-AC BUILDING STORY 1 THERMALZONE 1 PSZ-AC DEMAND INLET NODE SUPPLY PATH,BUILDING STORY 1 THERMALZONE 1 PSZ-AC
   #Components on Supply Air Path,1
   Supply Air Path Component,1,AIRLOOPHVAC:ZONESPLITTER,AIR LOOP HVAC ZONE SPLITTER 5,BUILDING STORY 1 THERMALZONE 1 PSZ-AC
     #Outlet Nodes on Supply Air Path Component,1
     Supply Air Path Component Nodes,1,AIRLOOPHVAC:ZONESPLITTER,AIR LOOP HVAC ZONE SPLITTER 5,BUILDING STORY 1 THERMALZONE 1 PSZ-AC DEMAND INLET NODE,BUILDING STORY 1 THERMALZONE 1 PSZ-AC DIFFUSER INLET AIR NODE,BUILDING STORY 1 THERMALZONE 1 PSZ-AC
! <#Nodes on Supply Air Path>,<Number of Nodes>
! <Supply Air Path Node>,<Node Type>,<Node Count>,<Node Name>,<AirLoopHVAC Name>
#Nodes on Supply Air Path,2
   Supply Air Path Node,Inlet Node,1,BUILDING STORY 1 THERMALZONE 1 PSZ-AC DEMAND INLET NODE,BUILDING STORY 1 THERMALZONE 1 PSZ-AC
   Supply Air Path Node,Outlet Node,2,BUILDING STORY 1 THERMALZONE 1 PSZ-AC DIFFUSER INLET AIR NODE,BUILDING STORY 1 THERMALZONE 1 PSZ-AC
 Supply Air Path,2,BUILDING STORY 1 THERMALZONE 2 PSZ-AC BUILDING STORY 1 THERMALZONE 2 PSZ-AC DEMAND INLET NODE SUPPLY PATH,BUILDING STORY 1 THERMALZONE 2 PSZ-AC
   #Components on Supply Air Path,1
   Supply Air Path Component,1,AIRLOOPHVAC:ZONESPLITTER,AIR LOOP HVAC ZONE SPLITTER 1,BUILDING STORY 1 THERMALZONE 2 PSZ-AC
     #Outlet Nodes on Supply Air Path Component,1
     Supply Air Path Component Nodes,1,AIRLOOPHVAC:ZONESPLITTER,AIR LOOP HVAC ZONE SPLITTER 1,BUILDING STORY 1 THERMALZONE 2 PSZ-AC DEMAND INLET NODE,BUILDING STORY 1 THERMALZONE 2 PSZ-AC DIFFUSER INLET AIR NODE,BUILDING STORY 1 THERMALZONE 2 PSZ-AC
! <#Nodes on Supply Air Path>,<Number of Nodes>
! <Supply Air Path Node>,<Node Type>,<Node Count>,<Node Name>,<AirLoopHVAC Name>
#Nodes on Supply Air Path,2
   Supply Air Path Node,Inlet Node,1,BUILDING STORY 1 THERMALZONE 2 PSZ-AC DEMAND INLET NODE,BUILDING STORY 1 THERMALZONE 2 PSZ-AC
   Supply Air Path Node,Outlet Node,2,BUILDING STORY 1 THERMALZONE 2 PSZ-AC DIFFUSER INLET AIR NODE,BUILDING STORY 1 THERMALZONE 2 PSZ-AC
 Supply Air Path,3,BUILDING STORY 1 THERMALZONE 3 PSZ-AC BUILDING STORY 1 THERMALZONE 3 PSZ-AC DEMAND INLET NODE SUPPLY PATH,BUILDING STORY 1 THERMALZONE 3 PSZ-AC
   #Components on Supply Air Path,1
   Supply Air Path Component,1,AIRLOOPHVAC:ZONESPLITTER,AIR LOOP HVAC ZONE SPLITTER 3,BUILDING STORY 1 THERMALZONE 3 PSZ-AC
     #Outlet Nodes on Supply Air Path Component,1
     Supply Air Path Component Nodes,1,AIRLOOPHVAC:ZONESPLITTER,AIR LOOP HVAC ZONE SPLITTER 3,BUILDING STORY 1 THERMALZONE 3 PSZ-AC DEMAND INLET NODE,BUILDING STORY 1 THERMALZONE 3 PSZ-AC DIFFUSER INLET AIR NODE,BUILDING STORY 1 THERMALZONE 3 PSZ-AC
! <#Nodes on Supply Air Path>,<Number of Nodes>
! <Supply Air Path Node>,<Node Type>,<Node Count>,<Node Name>,<AirLoopHVAC Name>
#Nodes on Supply Air Path,2
   Supply Air Path Node,Inlet Node,1,BUILDING STORY 1 THERMALZONE 3 PSZ-AC DEMAND INLET NODE,BUILDING STORY 1 THERMALZONE 3 PSZ-AC
   Supply Air Path Node,Outlet Node,2,BUILDING STORY 1 THERMALZONE 3 PSZ-AC DIFFUSER INLET AIR NODE,BUILDING STORY 1 THERMALZONE 3 PSZ-AC
 Supply Air Path,4,BUILDING STORY 1 THERMALZONE 4 PSZ-AC BUILDING STORY 1 THERMALZONE 4 PSZ-AC DEMAND INLET NODE SUPPLY PATH,BUILDING STORY 1 THERMALZONE 4 PSZ-AC
   #Components on Supply Air Path,1
   Supply Air Path Component,1,AIRLOOPHVAC:ZONESPLITTER,AIR LOOP HVAC ZONE SPLITTER 4,BUILDING STORY 1 THERMALZONE 4 PSZ-AC
     #Outlet Nodes on Supply Air Path Component,1
     Supply Air Path Component Nodes,1,AIRLOOPHVAC:ZONESPLITTER,AIR LOOP HVAC ZONE SPLITTER 4,BUILDING STORY 1 THERMALZONE 4 PSZ-AC DEMAND INLET NODE,BUILDING STORY 1 THERMALZONE 4 PSZ-AC DIFFUSER INLET AIR NODE,BUILDING STORY 1 THERMALZONE 4 PSZ-AC
! <#Nodes on Supply Air Path>,<Number of Nodes>
! <Supply Air Path Node>,<Node Type>,<Node Count>,<Node Name>,<AirLoopHVAC Name>
#Nodes on Supply Air Path,2
   Supply Air Path Node,Inlet Node,1,BUILDING STORY 1 THERMALZONE 4 PSZ-AC DEMAND INLET NODE,BUILDING STORY 1 THERMALZONE 4 PSZ-AC
   Supply Air Path Node,Outlet Node,2,BUILDING STORY 1 THERMALZONE 4 PSZ-AC DIFFUSER INLET AIR NODE,BUILDING STORY 1 THERMALZONE 4 PSZ-AC
 Supply Air Path,5,BUILDING STORY 1 THERMALZONE PSZ-AC BUILDING STORY 1 THERMALZONE PSZ-AC DEMAND INLET NODE SUPPLY PATH,BUILDING STORY 1 THERMALZONE PSZ-AC
   #Components on Supply Air Path,1
   Supply Air Path Component,1,AIRLOOPHVAC:ZONESPLITTER,AIR LOOP HVAC ZONE SPLITTER 2,BUILDING STORY 1 THERMALZONE PSZ-AC
     #Outlet Nodes on Supply Air Path Component,1
     Supply Air Path Component Nodes,1,AIRLOOPHVAC:ZONESPLITTER,AIR LOOP HVAC ZONE SPLITTER 2,BUILDING STORY 1 THERMALZONE PSZ-AC DEMAND INLET NODE,BUILDING STORY 1 THERMALZONE PSZ-AC DIFFUSER INLET AIR NODE,BUILDING STORY 1 THERMALZONE PSZ-AC
! <#Nodes on Supply Air Path>,<Number of Nodes>
! <Supply Air Path Node>,<Node Type>,<Node Count>,<Node Name>,<AirLoopHVAC Name>
#Nodes on Supply Air Path,2
   Supply Air Path Node,Inlet Node,1,BUILDING STORY 1 THERMALZONE PSZ-AC DEMAND INLET NODE,BUILDING STORY 1 THERMALZONE PSZ-AC
   Supply Air Path Node,Outlet Node,2,BUILDING STORY 1 THERMALZONE PSZ-AC DIFFUSER INLET AIR NODE,BUILDING STORY 1 THERMALZONE PSZ-AC
! ===============================================================
! <#Return Air Paths>,<Number of Return Air Paths>
 #Return Air Paths,5
! <Return Air Path>,<Return Air Path Count>,<Return Air Path Name>,<AirLoopHVAC Name>
! <#Components on Return Air Path>,<Number of Components>
! <Return Air Path Component>,<Component Count>,<Component Type>,<Component Name>,<AirLoopHVAC Name>
! <#Inlet Nodes on Return Air Path Component>,<Number of Nodes>
! <Return Air Path Component Nodes>,<Node Count>,<Component Type>,<Component Name>,<Inlet Node Name>,<Outlet Node Name>,<AirLoopHVAC Name>
 Return Air Path,1,BUILDING STORY 1 THERMALZONE 1 PSZ-AC RETURN PATH,BUILDING STORY 1 THERMALZONE 1 PSZ-AC
   #Components on Return Air Path,1
   Return Air Path Component,1,AIRLOOPHVAC:ZONEMIXER,AIR LOOP HVAC ZONE MIXER 5,BUILDING STORY 1 THERMALZONE 1 PSZ-AC
     #Inlet Nodes on Return Air Path Component,1
     Return Air Path Component Nodes,1,AIRLOOPHVAC:ZONEMIXER,AIR LOOP HVAC ZONE MIXER 5,BUILDING STORY 1 THERMALZONE 1 RETURN AIR NODE,BUILDING STORY 1 THERMALZONE 1 PSZ-AC DEMAND OUTLET NODE,BUILDING STORY 1 THERMALZONE 1 PSZ-AC
! <#Nodes on Return Air Path>,<Number of Nodes>
! <Return Air Path Node>,<Node Type>,<Node Count>,<Node Name>,<AirLoopHVAC Name>
   #Nodes on Return Air Path,2
   Return Air Path Node,Outlet Node,1,BUILDING STORY 1 THERMALZONE 1 PSZ-AC DEMAND OUTLET NODE,BUILDING STORY 1 THERMALZONE 1 PSZ-AC
   Return Air Path Node,Inlet Node,2,BUILDING STORY 1 THERMALZONE 1 RETURN AIR NODE,BUILDING STORY 1 THERMALZONE 1 PSZ-AC
 Return Air Path,2,BUILDING STORY 1 THERMALZONE 2 PSZ-AC RETURN PATH,BUILDING STORY 1 THERMALZONE 2 PSZ-AC
   #Components on Return Air Path,1
   Return Air Path Component,1,AIRLOOPHVAC:ZONEMIXER,AIR LOOP HVAC ZONE MIXER 1,BUILDING STORY 1 THERMALZONE 2 PSZ-AC
     #Inlet Nodes on Return Air Path Component,1
     Return Air Path Component Nodes,1,AIRLOOPHVAC:ZONEMIXER,AIR LOOP HVAC ZONE MIXER 1,BUILDING STORY 1 THERMALZONE 2 RETURN AIR NODE,BUILDING STORY 1 THERMALZONE 2 PSZ-AC DEMAND OUTLET NODE,BUILDING STORY 1 THERMALZONE 2 PSZ-AC
! <#Nodes on Return Air Path>,<Number of Nodes>
! <Return Air Path Node>,<Node Type>,<Node Count>,<Node Name>,<AirLoopHVAC Name>
   #Nodes on Return Air Path,2
   Return Air Path Node,Outlet Node,1,BUILDING STORY 1 THERMALZONE 2 PSZ-AC DEMAND OUTLET NODE,BUILDING STORY 1 THERMALZONE 2 PSZ-AC
   Return Air Path Node,Inlet Node,2,BUILDING STORY 1 THERMALZONE 2 RETURN AIR NODE,BUILDING STORY 1 THERMALZONE 2 PSZ-AC
 Return Air Path,3,BUILDING STORY 1 THERMALZONE 3 PSZ-AC RETURN PATH,BUILDING STORY 1 THERMALZONE 3 PSZ-AC
   #Components on Return Air Path,1
   Return Air Path Component,1,AIRLOOPHVAC:ZONEMIXER,AIR LOOP HVAC ZONE MIXER 3,BUILDING STORY 1 THERMALZONE 3 PSZ-AC
     #Inlet Nodes on Return Air Path Component,1
     Return Air Path Component Nodes,1,AIRLOOPHVAC:ZONEMIXER,AIR LOOP HVAC ZONE MIXER 3,BUILDING STORY 1 THERMALZONE 3 RETURN AIR NODE,BUILDING STORY 1 THERMALZONE 3 PSZ-AC DEMAND OUTLET NODE,BUILDING STORY 1 THERMALZONE 3 PSZ-AC
! <#Nodes on Return Air Path>,<Number of Nodes>
! <Return Air Path Node>,<Node Type>,<Node Count>,<Node Name>,<AirLoopHVAC Name>
   #Nodes on Return Air Path,2
   Return Air Path Node,Outlet Node,1,BUILDING STORY 1 THERMALZONE 3 PSZ-AC DEMAND OUTLET NODE,BUILDING STORY 1 THERMALZONE 3 PSZ-AC
   Return Air Path Node,Inlet Node,2,BUILDING STORY 1 THERMALZONE 3 RETURN AIR NODE,BUILDING STORY 1 THERMALZONE 3 PSZ-AC
 Return Air Path,4,BUILDING STORY 1 THERMALZONE 4 PSZ-AC RETURN PATH,BUILDING STORY 1 THERMALZONE 4 PSZ-AC
   #Components on Return Air Path,1
   Return Air Path Component,1,AIRLOOPHVAC:ZONEMIXER,AIR LOOP HVAC ZONE MIXER 4,BUILDING STORY 1 THERMALZONE 4 PSZ-AC
     #Inlet Nodes on Return Air Path Component,1
     Return Air Path Component Nodes,1,AIRLOOPHVAC:ZONEMIXER,AIR LOOP HVAC ZONE MIXER 4,BUILDING STORY 1 THERMALZONE 4 RETURN AIR NODE,BUILDING STORY 1 THERMALZONE 4 PSZ-AC DEMAND OUTLET NODE,BUILDING STORY 1 THERMALZONE 4 PSZ-AC
! <#Nodes on Return Air Path>,<Number of Nodes>
! <Return Air Path Node>,<Node Type>,<Node Count>,<Node Name>,<AirLoopHVAC Name>
   #Nodes on Return Air Path,2
   Return Air Path Node,Outlet Node,1,BUILDING STORY 1 THERMALZONE 4 PSZ-AC DEMAND OUTLET NODE,BUILDING STORY 1 THERMALZONE 4 PSZ-AC
   Return Air Path Node,Inlet Node,2,BUILDING STORY 1 THERMALZONE 4 RETURN AIR NODE,BUILDING STORY 1 THERMALZONE 4 PSZ-AC
 Return Air Path,5,BUILDING STORY 1 THERMALZONE PSZ-AC RETURN PATH,BUILDING STORY 1 THERMALZONE PSZ-AC
   #Components on Return Air Path,1
   Return Air Path Component,1,AIRLOOPHVAC:ZONEMIXER,AIR LOOP HVAC ZONE MIXER 2,BUILDING STORY 1 THERMALZONE PSZ-AC
     #Inlet Nodes on Return Air Path Component,1
     Return Air Path Component Nodes,1,AIRLOOPHVAC:ZONEMIXER,AIR LOOP HVAC ZONE MIXER 2,BUILDING STORY 1 THERMALZONE RETURN AIR NODE,BUILDING STORY 1 THERMALZONE PSZ-AC DEMAND OUTLET NODE,BUILDING STORY 1 THERMALZONE PSZ-AC
! <#Nodes on Return Air Path>,<Number of Nodes>
! <Return Air Path Node>,<Node Type>,<Node Count>,<Node Name>,<AirLoopHVAC Name>
   #Nodes on Return Air Path,2
   Return Air Path Node,Outlet Node,1,BUILDING STORY 1 THERMALZONE PSZ-AC DEMAND OUTLET NODE,BUILDING STORY 1 THERMALZONE PSZ-AC
   Return Air Path Node,Inlet Node,2,BUILDING STORY 1 THERMALZONE RETURN AIR NODE,BUILDING STORY 1 THERMALZONE PSZ-AC
! ===============================================================
! #Outdoor Air Nodes,<Number of Outdoor Air Nodes>
 #Outdoor Air Nodes,6
! <Outdoor Air Node>,<NodeNumber>,<Node Name>
 Outdoor Air Node,112,BUILDING STORY 1 THERMALZONE 1 PSZ-AC OUTDOOR AIR NODE
 Outdoor Air Node,113,BUILDING STORY 1 THERMALZONE 2 PSZ-AC OUTDOOR AIR NODE
 Outdoor Air Node,114,BUILDING STORY 1 THERMALZONE 3 PSZ-AC OUTDOOR AIR NODE
 Outdoor Air Node,115,BUILDING STORY 1 THERMALZONE 4 PSZ-AC OUTDOOR AIR NODE
 Outdoor Air Node,116,BUILDING STORY 1 THERMALZONE PSZ-AC OUTDOOR AIR NODE
 Outdoor Air Node,117,MODEL OUTDOOR AIR NODE
! ===============================================================
! <#Component Sets>,<Number of Component Sets>
 #Component Sets,74
! <Component Set>,<Component Set Count>,<Parent Object Type>,<Parent Object Name>,<Component Type>,<Component Name>,<Inlet Node ID>,<Outlet Node ID>,<Description>
 Component Set,1,BRANCH,BUILDING STORY 1 THERMALZONE 1 PSZ-AC MAIN BRANCH,AIRLOOPHVAC:OUTDOORAIRSYSTEM,BUILDING STORY 1 THERMALZONE 1 PSZ-AC OA SYSTEM,BUILDING STORY 1 THERMALZONE 1 PSZ-AC SUPPLY INLET NODE,BUILDING STORY 1 THERMALZONE 1 PSZ-AC MIXED AIR NODE,Air Nodes
 Component Set,2,BRANCH,BUILDING STORY 1 THERMALZONE 1 PSZ-AC MAIN BRANCH,COILSYSTEM:COOLING:DX,BUILDING STORY 1 THERMALZONE 1 PSZ-AC 1SPD DX AC CLG COIL 169KBTU/HR 10.8EER COILSYSTEM,BUILDING STORY 1 THERMALZONE 1 PSZ-AC MIXED AIR NODE,BUILDING STORY 1 THERMALZONE 1 PSZ-AC 1SPD DX AC CLG COIL OUTLET AIR NODE,Air Nodes
 Component Set,3,BRANCH,BUILDING STORY 1 THERMALZONE 1 PSZ-AC MAIN BRANCH,COIL:HEATING:FUEL,BUILDING STORY 1 THERMALZONE 1 PSZ-AC GAS HTG COIL,BUILDING STORY 1 THERMALZONE 1 PSZ-AC 1SPD DX AC CLG COIL OUTLET AIR NODE,BUILDING STORY 1 THERMALZONE 1 PSZ-AC GAS HTG COIL OUTLET AIR NODE,Air Nodes
 Component Set,4,BRANCH,BUILDING STORY 1 THERMALZONE 1 PSZ-AC MAIN BRANCH,COIL:HEATING:ELECTRIC,BUILDING STORY 1 THERMALZONE 1 PSZ-AC ELECTRIC BACKUP HTG COIL,BUILDING STORY 1 THERMALZONE 1 PSZ-AC GAS HTG COIL OUTLET AIR NODE,BUILDING STORY 1 THERMALZONE 1 PSZ-AC ELECTRIC BACKUP HTG COIL OUTLET AIR NODE,Air Nodes
 Component Set,5,BRANCH,BUILDING STORY 1 THERMALZONE 1 PSZ-AC MAIN BRANCH,FAN:CONSTANTVOLUME,BUILDING STORY 1 THERMALZONE 1 PSZ-AC FAN,BUILDING STORY 1 THERMALZONE 1 PSZ-AC ELECTRIC BACKUP HTG COIL OUTLET AIR NODE,BUILDING STORY 1 THERMALZONE 1 PSZ-AC SUPPLY OUTLET NODE,Air Nodes
 Component Set,6,BRANCH,BUILDING STORY 1 THERMALZONE 2 PSZ-AC MAIN BRANCH,AIRLOOPHVAC:OUTDOORAIRSYSTEM,BUILDING STORY 1 THERMALZONE 2 PSZ-AC OA SYSTEM,BUILDING STORY 1 THERMALZONE 2 PSZ-AC SUPPLY INLET NODE,BUILDING STORY 1 THERMALZONE 2 PSZ-AC MIXED AIR NODE,Air Nodes
 Component Set,7,BRANCH,BUILDING STORY 1 THERMALZONE 2 PSZ-AC MAIN BRANCH,COILSYSTEM:COOLING:DX,BUILDING STORY 1 THERMALZONE 2 PSZ-AC 1SPD DX AC CLG COIL 60KBTU/HR 14.0SEER COILSYSTEM,BUILDING STORY 1 THERMALZONE 2 PSZ-AC MIXED AIR NODE,BUILDING STORY 1 THERMALZONE 2 PSZ-AC 1SPD DX AC CLG COIL OUTLET AIR NODE,Air Nodes
 Component Set,8,BRANCH,BUILDING STORY 1 THERMALZONE 2 PSZ-AC MAIN BRANCH,COIL:HEATING:FUEL,BUILDING STORY 1 THERMALZONE 2 PSZ-AC GAS HTG COIL,BUILDING STORY 1 THERMALZONE 2 PSZ-AC 1SPD DX AC CLG COIL OUTLET AIR NODE,BUILDING STORY 1 THERMALZONE 2 PSZ-AC GAS HTG COIL OUTLET AIR NODE,Air Nodes
 Component Set,9,BRANCH,BUILDING STORY 1 THERMALZONE 2 PSZ-AC MAIN BRANCH,COIL:HEATING:ELECTRIC,BUILDING STORY 1 THERMALZONE 2 PSZ-AC ELECTRIC BACKUP HTG COIL,BUILDING STORY 1 THERMALZONE 2 PSZ-AC GAS HTG COIL OUTLET AIR NODE,BUILDING STORY 1 THERMALZONE 2 PSZ-AC ELECTRIC BACKUP HTG COIL OUTLET AIR NODE,Air Nodes
 Component Set,10,BRANCH,BUILDING STORY 1 THERMALZONE 2 PSZ-AC MAIN BRANCH,FAN:CONSTANTVOLUME,BUILDING STORY 1 THERMALZONE 2 PSZ-AC FAN,BUILDING STORY 1 THERMALZONE 2 PSZ-AC ELECTRIC BACKUP HTG COIL OUTLET AIR NODE,BUILDING STORY 1 THERMALZONE 2 PSZ-AC SUPPLY OUTLET NODE,Air Nodes
 Component Set,11,BRANCH,BUILDING STORY 1 THERMALZONE 3 PSZ-AC MAIN BRANCH,AIRLOOPHVAC:OUTDOORAIRSYSTEM,BUILDING STORY 1 THERMALZONE 3 PSZ-AC OA SYSTEM,BUILDING STORY 1 THERMALZONE 3 PSZ-AC SUPPLY INLET NODE,BUILDING STORY 1 THERMALZONE 3 PSZ-AC MIXED AIR NODE,Air Nodes
 Component Set,12,BRANCH,BUILDING STORY 1 THERMALZONE 3 PSZ-AC MAIN BRANCH,COILSYSTEM:COOLING:DX,BUILDING STORY 1 THERMALZONE 3 PSZ-AC 1SPD DX AC CLG COIL 153KBTU/HR 10.8EER COILSYSTEM,BUILDING STORY 1 THERMALZONE 3 PSZ-AC MIXED AIR NODE,BUILDING STORY 1 THERMALZONE 3 PSZ-AC 1SPD DX AC CLG COIL OUTLET AIR NODE,Air Nodes
 Component Set,13,BRANCH,BUILDING STORY 1 THERMALZONE 3 PSZ-AC MAIN BRANCH,COIL:HEATING:FUEL,BUILDING STORY 1 THERMALZONE 3 PSZ-AC GAS HTG COIL,BUILDING STORY 1 THERMALZONE 3 PSZ-AC 1SPD DX AC CLG COIL OUTLET AIR NODE,BUILDING STORY 1 THERMALZONE 3 PSZ-AC GAS HTG COIL OUTLET AIR NODE,Air Nodes
 Component Set,14,BRANCH,BUILDING STORY 1 THERMALZONE 3 PSZ-AC MAIN BRANCH,COIL:HEATING:ELECTRIC,BUILDING STORY 1 THERMALZONE 3 PSZ-AC ELECTRIC BACKUP HTG COIL,BUILDING STORY 1 THERMALZONE 3 PSZ-AC GAS HTG COIL OUTLET AIR NODE,BUILDING STORY 1 THERMALZONE 3 PSZ-AC ELECTRIC BACKUP HTG COIL OUTLET AIR NODE,Air Nodes
 Component Set,15,BRANCH,BUILDING STORY 1 THERMALZONE 3 PSZ-AC MAIN BRANCH,FAN:CONSTANTVOLUME,BUILDING STORY 1 THERMALZONE 3 PSZ-AC FAN,BUILDING STORY 1 THERMALZONE 3 PSZ-AC ELECTRIC BACKUP HTG COIL OUTLET AIR NODE,BUILDING STORY 1 THERMALZONE 3 PSZ-AC SUPPLY OUTLET NODE,Air Nodes
 Component Set,16,BRANCH,BUILDING STORY 1 THERMALZONE 4 PSZ-AC MAIN BRANCH,AIRLOOPHVAC:OUTDOORAIRSYSTEM,BUILDING STORY 1 THERMALZONE 4 PSZ-AC OA SYSTEM,BUILDING STORY 1 THERMALZONE 4 PSZ-AC SUPPLY INLET NODE,BUILDING STORY 1 THERMALZONE 4 PSZ-AC MIXED AIR NODE,Air Nodes
 Component Set,17,BRANCH,BUILDING STORY 1 THERMALZONE 4 PSZ-AC MAIN BRANCH,COILSYSTEM:COOLING:DX,BUILDING STORY 1 THERMALZONE 4 PSZ-AC 1SPD DX AC CLG COIL 71KBTU/HR 11.0EER COILSYSTEM,BUILDING STORY 1 THERMALZONE 4 PSZ-AC MIXED AIR NODE,BUILDING STORY 1 THERMALZONE 4 PSZ-AC 1SPD DX AC CLG COIL OUTLET AIR NODE,Air Nodes
 Component Set,18,BRANCH,BUILDING STORY 1 THERMALZONE 4 PSZ-AC MAIN BRANCH,COIL:HEATING:FUEL,BUILDING STORY 1 THERMALZONE 4 PSZ-AC GAS HTG COIL,BUILDING STORY 1 THERMALZONE 4 PSZ-AC 1SPD DX AC CLG COIL OUTLET AIR NODE,BUILDING STORY 1 THERMALZONE 4 PSZ-AC GAS HTG COIL OUTLET AIR NODE,Air Nodes
 Component Set,19,BRANCH,BUILDING STORY 1 THERMALZONE 4 PSZ-AC MAIN BRANCH,COIL:HEATING:ELECTRIC,BUILDING STORY 1 THERMALZONE 4 PSZ-AC ELECTRIC BACKUP HTG COIL,BUILDING STORY 1 THERMALZONE 4 PSZ-AC GAS HTG COIL OUTLET AIR NODE,BUILDING STORY 1 THERMALZONE 4 PSZ-AC ELECTRIC BACKUP HTG COIL OUTLET AIR NODE,Air Nodes
 Component Set,20,BRANCH,BUILDING STORY 1 THERMALZONE 4 PSZ-AC MAIN BRANCH,FAN:CONSTANTVOLUME,BUILDING STORY 1 THERMALZONE 4 PSZ-AC FAN,BUILDING STORY 1 THERMALZONE 4 PSZ-AC ELECTRIC BACKUP HTG COIL OUTLET AIR NODE,BUILDING STORY 1 THERMALZONE 4 PSZ-AC SUPPLY OUTLET NODE,Air Nodes
 Component Set,21,BRANCH,BUILDING STORY 1 THERMALZONE PSZ-AC MAIN BRANCH,AIRLOOPHVAC:OUTDOORAIRSYSTEM,BUILDING STORY 1 THERMALZONE PSZ-AC OA SYSTEM,BUILDING STORY 1 THERMALZONE PSZ-AC SUPPLY INLET NODE,BUILDING STORY 1 THERMALZONE PSZ-AC MIXED AIR NODE,Air Nodes
 Component Set,22,BRANCH,BUILDING STORY 1 THERMALZONE PSZ-AC MAIN BRANCH,COILSYSTEM:COOLING:DX,BUILDING STORY 1 THERMALZONE PSZ-AC 1SPD DX AC CLG COIL 856KBTU/HR 9.5EER COILSYSTEM,BUILDING STORY 1 THERMALZONE PSZ-AC MIXED AIR NODE,BUILDING STORY 1 THERMALZONE PSZ-AC 1SPD DX AC CLG COIL OUTLET AIR NODE,Air Nodes
 Component Set,23,BRANCH,BUILDING STORY 1 THERMALZONE PSZ-AC MAIN BRANCH,COIL:HEATING:FUEL,BUILDING STORY 1 THERMALZONE PSZ-AC GAS HTG COIL,BUILDING STORY 1 THERMALZONE PSZ-AC 1SPD DX AC CLG COIL OUTLET AIR NODE,BUILDING STORY 1 THERMALZONE PSZ-AC GAS HTG COIL OUTLET AIR NODE,Air Nodes
 Component Set,24,BRANCH,BUILDING STORY 1 THERMALZONE PSZ-AC MAIN BRANCH,COIL:HEATING:ELECTRIC,BUILDING STORY 1 THERMALZONE PSZ-AC ELECTRIC BACKUP HTG COIL,BUILDING STORY 1 THERMALZONE PSZ-AC GAS HTG COIL OUTLET AIR NODE,BUILDING STORY 1 THERMALZONE PSZ-AC ELECTRIC BACKUP HTG COIL OUTLET AIR NODE,Air Nodes
 Component Set,25,BRANCH,BUILDING STORY 1 THERMALZONE PSZ-AC MAIN BRANCH,FAN:CONSTANTVOLUME,BUILDING STORY 1 THERMALZONE PSZ-AC FAN,BUILDING STORY 1 THERMALZONE PSZ-AC ELECTRIC BACKUP HTG COIL OUTLET AIR NODE,BUILDING STORY 1 THERMALZONE PSZ-AC SUPPLY OUTLET NODE,Air Nodes
 Component Set,26,BRANCH,FULLSERVICERESTAURANT KITCHEN - 90.1-2013 SERVICE WATER BOOSTER LOOP SUPPLY INLET BRANCH,HEATEXCHANGER:FLUIDTOFLUID,HX FOR BOOSTER WATER HEATING,FULLSERVICERESTAURANT KITCHEN - 90.1-2013 SERVICE WATER BOOSTER LOOP SUPPLY INLET NODE,BOOSTER WATER LOOP PUMP INLET WATER NODE,Loop Supply Side Plant Nodes
 Component Set,27,BRANCH,FULLSERVICERESTAURANT KITCHEN - 90.1-2013 SERVICE WATER BOOSTER LOOP SUPPLY INLET BRANCH,PUMP:VARIABLESPEED,BOOSTER WATER LOOP PUMP,BOOSTER WATER LOOP PUMP INLET WATER NODE,BOOSTER WATER LOOP PUMP OUTLET WATER NODE,Water Nodes
 Component Set,28,BRANCH,FULLSERVICERESTAURANT KITCHEN - 90.1-2013 SERVICE WATER BOOSTER LOOP SUPPLY BRANCH 1,WATERHEATER:MIXED,6.0GAL ELECTRICITY BOOSTER WATER HEATER - 65KBTU/HR 1.0 THERM EFF,6.0GAL ELECTRICITY BOOSTER WATER HEATER - 65KBTU/HR SUPPLY INLET WATER NODE,6.0GAL ELECTRICITY BOOSTER WATER HEATER - 65KBTU/HR SUPPLY OUTLET WATER NODE,Use Side Water Nodes
 Component Set,29,BRANCH,FULLSERVICERESTAURANT KITCHEN - 90.1-2013 SERVICE WATER BOOSTER LOOP SUPPLY BRANCH 2,PIPE:ADIABATIC,PIPE ADIABATIC 5,PIPE ADIABATIC 5 INLET WATER NODE,PIPE ADIABATIC 5 OUTLET WATER NODE,Pipe Nodes
 Component Set,30,BRANCH,FULLSERVICERESTAURANT KITCHEN - 90.1-2013 SERVICE WATER BOOSTER LOOP SUPPLY OUTLET BRANCH,PIPE:ADIABATIC,PIPE ADIABATIC 7,PIPE ADIABATIC 7 INLET WATER NODE,FULLSERVICERESTAURANT KITCHEN - 90.1-2013 SERVICE WATER BOOSTER LOOP SUPPLY OUTLET NODE,Pipe Nodes
 Component Set,31,BRANCH,FULLSERVICERESTAURANT KITCHEN - 90.1-2013 SERVICE WATER BOOSTER LOOP DEMAND INLET BRANCH,PIPE:ADIABATIC,PIPE ADIABATIC 8,FULLSERVICERESTAURANT KITCHEN - 90.1-2013 SERVICE WATER BOOSTER LOOP DEMAND INLET NODE,PIPE ADIABATIC 8 OUTLET WATER NODE,Pipe Nodes
 Component Set,32,BRANCH,FULLSERVICERESTAURANT KITCHEN - 90.1-2013 SERVICE WATER BOOSTER LOOP DEMAND BRANCH 1,PIPE:ADIABATIC,PIPE ADIABATIC 6,PIPE ADIABATIC 6 INLET WATER NODE,PIPE ADIABATIC 6 OUTLET WATER NODE,Pipe Nodes
 Component Set,33,BRANCH,FULLSERVICERESTAURANT KITCHEN - 90.1-2013 SERVICE WATER BOOSTER LOOP DEMAND BRANCH 2,WATERUSE:CONNECTIONS,BOOSTER FULLSERVICERESTAURANT KITCHEN - 90.1-2013 WUC 5.39GPM AT 180F,BOOSTER FULLSERVICERESTAURANT KITCHEN - 90.1-2013 WUC 5.39GPM AT 180F INLET WATER NODE,BOOSTER FULLSERVICERESTAURANT KITCHEN - 90.1-2013 WUC 5.39GPM AT 180F OUTLET WATER NODE,DHW Nodes
 Component Set,34,BRANCH,FULLSERVICERESTAURANT KITCHEN - 90.1-2013 SERVICE WATER BOOSTER LOOP DEMAND BYPASS BRANCH,PIPE:ADIABATIC,FULLSERVICERESTAURANT KITCHEN - 90.1-2013 SERVICE WATER BOOSTER LOOP DEMAND BYPASS PIPE,FULLSERVICERESTAURANT KITCHEN - 90.1-2013 SERVICE WATER BOOSTER LOOP DEMAND BYPASS PIPE INLET NODE,FULLSERVICERESTAURANT KITCHEN - 90.1-2013 SERVICE WATER BOOSTER LOOP DEMAND BYPASS PIPE OUTLET NODE,Pipe Nodes
 Component Set,35,BRANCH,FULLSERVICERESTAURANT KITCHEN - 90.1-2013 SERVICE WATER BOOSTER LOOP DEMAND OUTLET BRANCH,PIPE:ADIABATIC,PIPE ADIABATIC 9,PIPE ADIABATIC 9 INLET WATER NODE,FULLSERVICERESTAURANT KITCHEN - 90.1-2013 SERVICE WATER BOOSTER LOOP DEMAND OUTLET NODE,Pipe Nodes
 Component Set,36,BRANCH,FULLSERVICERESTAURANT KITCHEN - 90.1-2013 SERVICE WATER LOOP SUPPLY INLET BRANCH,PUMP:VARIABLESPEED,FULLSERVICERESTAURANT KITCHEN - 90.1-2013 SERVICE WATER LOOP WATER MAINS PRESSURE DRIVEN,FULLSERVICERESTAURANT KITCHEN - 90.1-2013 SERVICE WATER LOOP SUPPLY INLET NODE,FULLSERVICERESTAURANT KITCHEN - 90.1-2013 SERVICE WATER LOOP WATER MAINS PRESSURE DRIVEN OUTLET WATER NODE,Water Nodes
 Component Set,37,BRANCH,FULLSERVICERESTAURANT KITCHEN - 90.1-2013 SERVICE WATER LOOP SUPPLY BRANCH 1,WATERHEATER:MIXED,340GAL NATURALGAS WATER HEATER - 340KBTU/HR 0.804 THERM EFF,340GAL NATURALGAS WATER HEATER - 340KBTU/HR SUPPLY INLET WATER NODE,340GAL NATURALGAS WATER HEATER - 340KBTU/HR SUPPLY OUTLET WATER NODE,Use Side Water Nodes
 Component Set,38,BRANCH,FULLSERVICERESTAURANT KITCHEN - 90.1-2013 SERVICE WATER LOOP SUPPLY BRANCH 2,PIPE:ADIABATIC,PIPE ADIABATIC 1,PIPE ADIABATIC 1 INLET WATER NODE,PIPE ADIABATIC 1 OUTLET WATER NODE,Pipe Nodes
 Component Set,39,BRANCH,FULLSERVICERESTAURANT KITCHEN - 90.1-2013 SERVICE WATER LOOP SUPPLY OUTLET BRANCH,PIPE:ADIABATIC,PIPE ADIABATIC 3,PIPE ADIABATIC 3 INLET WATER NODE,FULLSERVICERESTAURANT KITCHEN - 90.1-2013 SERVICE WATER LOOP SUPPLY OUTLET NODE,Pipe Nodes
 Component Set,40,BRANCH,FULLSERVICERESTAURANT KITCHEN - 90.1-2013 SERVICE WATER LOOP DEMAND INLET BRANCH,PIPE:INDOOR,FULLSERVICERESTAURANT KITCHEN - 90.1-2013 SERVICE WATER LOOP PIPE 20.0FT,FULLSERVICERESTAURANT KITCHEN - 90.1-2013 SERVICE WATER LOOP DEMAND INLET NODE,FULLSERVICERESTAURANT KITCHEN - 90.1-2013 SERVICE WATER LOOP PIPE 20.0FT OUTLET WATER NODE,Pipe Nodes
 Component Set,41,BRANCH,FULLSERVICERESTAURANT KITCHEN - 90.1-2013 SERVICE WATER LOOP DEMAND BRANCH 1,PIPE:ADIABATIC,PIPE ADIABATIC 2,PIPE ADIABATIC 2 INLET WATER NODE,PIPE ADIABATIC 2 OUTLET WATER NODE,Pipe Nodes
 Component Set,42,BRANCH,FULLSERVICERESTAURANT KITCHEN - 90.1-2013 SERVICE WATER LOOP DEMAND BRANCH 2,WATERUSE:CONNECTIONS,FULLSERVICERESTAURANT KITCHEN - 90.1-2013 WUC 3.6GPM AT 140F,FULLSERVICERESTAURANT KITCHEN - 90.1-2013 WUC 3.6GPM AT 140F INLET WATER NODE,FULLSERVICERESTAURANT KITCHEN - 90.1-2013 WUC 3.6GPM AT 140F OUTLET WATER NODE,DHW Nodes
 Component Set,43,BRANCH,FULLSERVICERESTAURANT KITCHEN - 90.1-2013 SERVICE WATER LOOP DEMAND BRANCH 3,HEATEXCHANGER:FLUIDTOFLUID,HX FOR BOOSTER WATER HEATING,HX FOR BOOSTER WATER HEATING DEMAND INLET WATER NODE,MAINS WATER MAKEUP FOR SWH BOOSTER INLET WATER NODE,Loop Demand Side Plant Nodes
 Component Set,44,BRANCH,FULLSERVICERESTAURANT KITCHEN - 90.1-2013 SERVICE WATER LOOP DEMAND BRANCH 3,PLANTCOMPONENT:TEMPERATURESOURCE,MAINS WATER MAKEUP FOR SWH BOOSTER,MAINS WATER MAKEUP FOR SWH BOOSTER INLET WATER NODE,MAINS WATER MAKEUP FOR SWH BOOSTER OUTLET WATER NODE,Chilled Water Nodes
 Component Set,45,BRANCH,FULLSERVICERESTAURANT KITCHEN - 90.1-2013 SERVICE WATER LOOP DEMAND BYPASS BRANCH,PIPE:ADIABATIC,FULLSERVICERESTAURANT KITCHEN - 90.1-2013 SERVICE WATER LOOP DEMAND BYPASS PIPE,FULLSERVICERESTAURANT KITCHEN - 90.1-2013 SERVICE WATER LOOP DEMAND BYPASS PIPE INLET NODE,FULLSERVICERESTAURANT KITCHEN - 90.1-2013 SERVICE WATER LOOP DEMAND BYPASS PIPE OUTLET NODE,Pipe Nodes
 Component Set,46,BRANCH,FULLSERVICERESTAURANT KITCHEN - 90.1-2013 SERVICE WATER LOOP DEMAND OUTLET BRANCH,PIPE:ADIABATIC,PIPE ADIABATIC 4,PIPE ADIABATIC 4 INLET WATER NODE,FULLSERVICERESTAURANT KITCHEN - 90.1-2013 SERVICE WATER LOOP DEMAND OUTLET NODE,Pipe Nodes
 Component Set,47,BRANCH,HOT WATER LOOP SUPPLY INLET BRANCH,PUMP:VARIABLESPEED,HOT WATER LOOP PUMP,HOT WATER LOOP SUPPLY INLET NODE,HOT WATER LOOP PUMP OUTLET WATER NODE,Water Nodes
 Component Set,48,BRANCH,HOT WATER LOOP SUPPLY BRANCH 1,BOILER:HOTWATER,BOILER,BOILER INLET WATER NODE,BOILER OUTLET WATER NODE,Hot Water Nodes
 Component Set,49,BRANCH,HOT WATER LOOP SUPPLY BRANCH 2,PIPE:ADIABATIC,HOT WATER LOOP SUPPLY EQUIPMENT BYPASS,HOT WATER LOOP SUPPLY EQUIPMENT BYPASS INLET WATER NODE,HOT WATER LOOP SUPPLY EQUIPMENT BYPASS OUTLET WATER NODE,Pipe Nodes
 Component Set,50,BRANCH,HOT WATER LOOP SUPPLY OUTLET BRANCH,PIPE:ADIABATIC,HOT WATER LOOP SUPPLY OUTLET,HOT WATER LOOP SUPPLY OUTLET INLET WATER NODE,HOT WATER LOOP SUPPLY OUTLET NODE,Pipe Nodes
 Component Set,51,BRANCH,HOT WATER LOOP DEMAND INLET BRANCH,PIPE:ADIABATIC,HOT WATER LOOP DEMAND INLET,HOT WATER LOOP DEMAND INLET NODE,HOT WATER LOOP DEMAND INLET OUTLET WATER NODE,Pipe Nodes
 Component Set,52,BRANCH,HOT WATER LOOP DEMAND BRANCH 1,PIPE:ADIABATIC,HOT WATER LOOP COIL BYPASS,HOT WATER LOOP COIL BYPASS INLET WATER NODE,HOT WATER LOOP COIL BYPASS OUTLET WATER NODE,Pipe Nodes
 Component Set,53,BRANCH,HOT WATER LOOP DEMAND BYPASS BRANCH,PIPE:ADIABATIC,HOT WATER LOOP DEMAND BYPASS PIPE,HOT WATER LOOP DEMAND BYPASS PIPE INLET NODE,HOT WATER LOOP DEMAND BYPASS PIPE OUTLET NODE,Pipe Nodes
 Component Set,54,BRANCH,HOT WATER LOOP DEMAND OUTLET BRANCH,PIPE:ADIABATIC,HOT WATER LOOP DEMAND OUTLET,HOT WATER LOOP DEMAND OUTLET INLET WATER NODE,HOT WATER LOOP DEMAND OUTLET NODE,Pipe Nodes
 Component Set,55,ZONEHVAC:AIRDISTRIBUTIONUNIT,ADU BUILDING STORY 1 THERMALZONE PSZ-AC DIFFUSER,AIRTERMINAL:SINGLEDUCT:CONSTANTVOLUME:NOREHEAT,BUILDING STORY 1 THERMALZONE PSZ-AC DIFFUSER,BUILDING STORY 1 THERMALZONE PSZ-AC DIFFUSER INLET AIR NODE,BUILDING STORY 1 THERMALZONE PSZ-AC DIFFUSER OUTLET AIR NODE,Air Nodes
 Component Set,56,ZONEHVAC:AIRDISTRIBUTIONUNIT,ADU BUILDING STORY 1 THERMALZONE 1 PSZ-AC DIFFUSER,AIRTERMINAL:SINGLEDUCT:CONSTANTVOLUME:NOREHEAT,BUILDING STORY 1 THERMALZONE 1 PSZ-AC DIFFUSER,BUILDING STORY 1 THERMALZONE 1 PSZ-AC DIFFUSER INLET AIR NODE,BUILDING STORY 1 THERMALZONE 1 PSZ-AC DIFFUSER OUTLET AIR NODE,Air Nodes
 Component Set,57,ZONEHVAC:AIRDISTRIBUTIONUNIT,ADU BUILDING STORY 1 THERMALZONE 2 PSZ-AC DIFFUSER,AIRTERMINAL:SINGLEDUCT:CONSTANTVOLUME:NOREHEAT,BUILDING STORY 1 THERMALZONE 2 PSZ-AC DIFFUSER,BUILDING STORY 1 THERMALZONE 2 PSZ-AC DIFFUSER INLET AIR NODE,BUILDING STORY 1 THERMALZONE 2 PSZ-AC DIFFUSER OUTLET AIR NODE,Air Nodes
 Component Set,58,ZONEHVAC:AIRDISTRIBUTIONUNIT,ADU BUILDING STORY 1 THERMALZONE 3 PSZ-AC DIFFUSER,AIRTERMINAL:SINGLEDUCT:CONSTANTVOLUME:NOREHEAT,BUILDING STORY 1 THERMALZONE 3 PSZ-AC DIFFUSER,BUILDING STORY 1 THERMALZONE 3 PSZ-AC DIFFUSER INLET AIR NODE,BUILDING STORY 1 THERMALZONE 3 PSZ-AC DIFFUSER OUTLET AIR NODE,Air Nodes
 Component Set,59,ZONEHVAC:AIRDISTRIBUTIONUNIT,ADU BUILDING STORY 1 THERMALZONE 4 PSZ-AC DIFFUSER,AIRTERMINAL:SINGLEDUCT:CONSTANTVOLUME:NOREHEAT,BUILDING STORY 1 THERMALZONE 4 PSZ-AC DIFFUSER,BUILDING STORY 1 THERMALZONE 4 PSZ-AC DIFFUSER INLET AIR NODE,BUILDING STORY 1 THERMALZONE 4 PSZ-AC DIFFUSER OUTLET AIR NODE,Air Nodes
 Component Set,60,AIRLOOPHVAC:OUTDOORAIRSYSTEM,BUILDING STORY 1 THERMALZONE 1 PSZ-AC OA SYSTEM,HEATEXCHANGER:AIRTOAIR:SENSIBLEANDLATENT,BUILDING STORY 1 THERMALZONE 1 PSZ-AC ERV,BUILDING STORY 1 THERMALZONE 1 PSZ-AC OUTDOOR AIR NODE,NODE 2,Process Air Nodes
 Component Set,61,AIRLOOPHVAC:OUTDOORAIRSYSTEM,BUILDING STORY 1 THERMALZONE 1 PSZ-AC OA SYSTEM,OUTDOORAIR:MIXER,BUILDING STORY 1 THERMALZONE 1 PSZ-AC OA SYSTEM OUTDOOR AIR MIXER,NODE 2,BUILDING STORY 1 THERMALZONE 1 PSZ-AC MIXED AIR NODE,Air Nodes
 Component Set,62,AIRLOOPHVAC:OUTDOORAIRSYSTEM,BUILDING STORY 1 THERMALZONE 2 PSZ-AC OA SYSTEM,HEATEXCHANGER:AIRTOAIR:SENSIBLEANDLATENT,BUILDING STORY 1 THERMALZONE 2 PSZ-AC ERV,BUILDING STORY 1 THERMALZONE 2 PSZ-AC OUTDOOR AIR NODE,NODE 4,Process Air Nodes
 Component Set,63,AIRLOOPHVAC:OUTDOORAIRSYSTEM,BUILDING STORY 1 THERMALZONE 2 PSZ-AC OA SYSTEM,OUTDOORAIR:MIXER,BUILDING STORY 1 THERMALZONE 2 PSZ-AC OA SYSTEM OUTDOOR AIR MIXER,NODE 4,BUILDING STORY 1 THERMALZONE 2 PSZ-AC MIXED AIR NODE,Air Nodes
 Component Set,64,AIRLOOPHVAC:OUTDOORAIRSYSTEM,BUILDING STORY 1 THERMALZONE 3 PSZ-AC OA SYSTEM,HEATEXCHANGER:AIRTOAIR:SENSIBLEANDLATENT,BUILDING STORY 1 THERMALZONE 3 PSZ-AC ERV,BUILDING STORY 1 THERMALZONE 3 PSZ-AC OUTDOOR AIR NODE,NODE 6,Process Air Nodes
 Component Set,65,AIRLOOPHVAC:OUTDOORAIRSYSTEM,BUILDING STORY 1 THERMALZONE 3 PSZ-AC OA SYSTEM,OUTDOORAIR:MIXER,BUILDING STORY 1 THERMALZONE 3 PSZ-AC OA SYSTEM OUTDOOR AIR MIXER,NODE 6,BUILDING STORY 1 THERMALZONE 3 PSZ-AC MIXED AIR NODE,Air Nodes
 Component Set,66,AIRLOOPHVAC:OUTDOORAIRSYSTEM,BUILDING STORY 1 THERMALZONE 4 PSZ-AC OA SYSTEM,HEATEXCHANGER:AIRTOAIR:SENSIBLEANDLATENT,BUILDING STORY 1 THERMALZONE 4 PSZ-AC ERV,BUILDING STORY 1 THERMALZONE 4 PSZ-AC OUTDOOR AIR NODE,NODE 8,Process Air Nodes
 Component Set,67,AIRLOOPHVAC:OUTDOORAIRSYSTEM,BUILDING STORY 1 THERMALZONE 4 PSZ-AC OA SYSTEM,OUTDOORAIR:MIXER,BUILDING STORY 1 THERMALZONE 4 PSZ-AC OA SYSTEM OUTDOOR AIR MIXER,NODE 8,BUILDING STORY 1 THERMALZONE 4 PSZ-AC MIXED AIR NODE,Air Nodes
 Component Set,68,AIRLOOPHVAC:OUTDOORAIRSYSTEM,BUILDING STORY 1 THERMALZONE PSZ-AC OA SYSTEM,HEATEXCHANGER:AIRTOAIR:SENSIBLEANDLATENT,BUILDING STORY 1 THERMALZONE PSZ-AC ERV,BUILDING STORY 1 THERMALZONE PSZ-AC OUTDOOR AIR NODE,NODE 10,Process Air Nodes
 Component Set,69,AIRLOOPHVAC:OUTDOORAIRSYSTEM,BUILDING STORY 1 THERMALZONE PSZ-AC OA SYSTEM,OUTDOORAIR:MIXER,BUILDING STORY 1 THERMALZONE PSZ-AC OA SYSTEM OUTDOOR AIR MIXER,NODE 10,BUILDING STORY 1 THERMALZONE PSZ-AC MIXED AIR NODE,Air Nodes
 Component Set,70,COILSYSTEM:COOLING:DX,BUILDING STORY 1 THERMALZONE 1 PSZ-AC 1SPD DX AC CLG COIL 169KBTU/HR 10.8EER COILSYSTEM,COIL:COOLING:DX:SINGLESPEED,BUILDING STORY 1 THERMALZONE 1 PSZ-AC 1SPD DX AC CLG COIL 169KBTU/HR 10.8EER,BUILDING STORY 1 THERMALZONE 1 PSZ-AC MIXED AIR NODE,BUILDING STORY 1 THERMALZONE 1 PSZ-AC 1SPD DX AC CLG COIL OUTLET AIR NODE,Air Nodes
 Component Set,71,COILSYSTEM:COOLING:DX,BUILDING STORY 1 THERMALZONE 2 PSZ-AC 1SPD DX AC CLG COIL 60KBTU/HR 14.0SEER COILSYSTEM,COIL:COOLING:DX:SINGLESPEED,BUILDING STORY 1 THERMALZONE 2 PSZ-AC 1SPD DX AC CLG COIL 60KBTU/HR 14.0SEER,BUILDING STORY 1 THERMALZONE 2 PSZ-AC MIXED AIR NODE,BUILDING STORY 1 THERMALZONE 2 PSZ-AC 1SPD DX AC CLG COIL OUTLET AIR NODE,Air Nodes
 Component Set,72,COILSYSTEM:COOLING:DX,BUILDING STORY 1 THERMALZONE 3 PSZ-AC 1SPD DX AC CLG COIL 153KBTU/HR 10.8EER COILSYSTEM,COIL:COOLING:DX:SINGLESPEED,BUILDING STORY 1 THERMALZONE 3 PSZ-AC 1SPD DX AC CLG COIL 153KBTU/HR 10.8EER,BUILDING STORY 1 THERMALZONE 3 PSZ-AC MIXED AIR NODE,BUILDING STORY 1 THERMALZONE 3 PSZ-AC 1SPD DX AC CLG COIL OUTLET AIR NODE,Air Nodes
 Component Set,73,COILSYSTEM:COOLING:DX,BUILDING STORY 1 THERMALZONE 4 PSZ-AC 1SPD DX AC CLG COIL 71KBTU/HR 11.0EER COILSYSTEM,COIL:COOLING:DX:SINGLESPEED,BUILDING STORY 1 THERMALZONE 4 PSZ-AC 1SPD DX AC CLG COIL 71KBTU/HR 11.0EER,BUILDING STORY 1 THERMALZONE 4 PSZ-AC MIXED AIR NODE,BUILDING STORY 1 THERMALZONE 4 PSZ-AC 1SPD DX AC CLG COIL OUTLET AIR NODE,Air Nodes
 Component Set,74,COILSYSTEM:COOLING:DX,BUILDING STORY 1 THERMALZONE PSZ-AC 1SPD DX AC CLG COIL 856KBTU/HR 9.5EER COILSYSTEM,COIL:COOLING:DX:SINGLESPEED,BUILDING STORY 1 THERMALZONE PSZ-AC 1SPD DX AC CLG COIL 856KBTU/HR 9.5EER,BUILDING STORY 1 THERMALZONE PSZ-AC MIXED AIR NODE,BUILDING STORY 1 THERMALZONE PSZ-AC 1SPD DX AC CLG COIL OUTLET AIR NODE,Air Nodes
! ===============================================================
! <# Plant Loops>,<Number of Plant Loops>
 #Plant Loops,3
! <Plant Loop>,<Plant Loop Name>,<Loop Type>,<Inlet Node Name>,<Outlet Node Name>,<Branch List>,<Connector List>
! <Plant Loop Connector>,<Connector Type>,<Connector Name>,<Loop Name>,<Loop Type>,<Number of Inlets/Outlets>
! <Plant Loop Connector Branches>,<Connector Node Count>,<Connector Type>,<Connector Name>,<Inlet Branch>,<Outlet Branch>,<Loop Name>,<Loop Type>
! <Plant Loop Connector Nodes>,<Connector Node Count>,<Connector Type>,<Connector Name>,<Inlet Node>,<Outlet Node>,<Loop Name>,<Loop Type>
! <Plant Loop Supply Connection>,<Plant Loop Name>,<Supply Side Outlet Node Name>,<Demand Side Inlet Node Name>
! <Plant Loop Return Connection>,<Plant Loop Name>,<Demand Side Outlet Node Name>,<Supply Side Inlet Node Name>
 Plant Loop,FULLSERVICERESTAURANT KITCHEN - 90.1-2013 SERVICE WATER BOOSTER LOOP,Demand,FULLSERVICERESTAURANT KITCHEN - 90.1-2013 SERVICE WATER BOOSTER LOOP DEMAND INLET NODE,FULLSERVICERESTAURANT KITCHEN - 90.1-2013 SERVICE WATER BOOSTER LOOP DEMAND OUTLET NODE,FULLSERVICERESTAURANT KITCHEN - 90.1-2013 SERVICE WATER BOOSTER LOOP DEMAND BRANCHES,FULLSERVICERESTAURANT KITCHEN - 90.1-2013 SERVICE WATER BOOSTER LOOP DEMAND CONNECTOR LIST
   Plant Loop Connector,Splitter,FULLSERVICERESTAURANT KITCHEN - 90.1-2013 SERVICE WATER BOOSTER LOOP DEMAND SPLITTER,FULLSERVICERESTAURANT KITCHEN - 90.1-2013 SERVICE WATER BOOSTER LOOP,Demand,3
     Plant Loop Connector Branches,1,Splitter,FULLSERVICERESTAURANT KITCHEN - 90.1-2013 SERVICE WATER BOOSTER LOOP DEMAND SPLITTER,FULLSERVICERESTAURANT KITCHEN - 90.1-2013 SERVICE WATER BOOSTER LOOP DEMAND INLET BRANCH,FULLSERVICERESTAURANT KITCHEN - 90.1-2013 SERVICE WATER BOOSTER LOOP DEMAND BRANCH 1,FULLSERVICERESTAURANT KITCHEN - 90.1-2013 SERVICE WATER BOOSTER LOOP,Demand
     Plant Loop Connector Nodes,   1,Splitter,FULLSERVICERESTAURANT KITCHEN - 90.1-2013 SERVICE WATER BOOSTER LOOP DEMAND SPLITTER,PIPE ADIABATIC 8 OUTLET WATER NODE,PIPE ADIABATIC 6 INLET WATER NODE,FULLSERVICERESTAURANT KITCHEN - 90.1-2013 SERVICE WATER BOOSTER LOOP,Demand
     Plant Loop Connector Branches,2,Splitter,FULLSERVICERESTAURANT KITCHEN - 90.1-2013 SERVICE WATER BOOSTER LOOP DEMAND SPLITTER,FULLSERVICERESTAURANT KITCHEN - 90.1-2013 SERVICE WATER BOOSTER LOOP DEMAND INLET BRANCH,FULLSERVICERESTAURANT KITCHEN - 90.1-2013 SERVICE WATER BOOSTER LOOP DEMAND BRANCH 2,FULLSERVICERESTAURANT KITCHEN - 90.1-2013 SERVICE WATER BOOSTER LOOP,Demand
     Plant Loop Connector Nodes,   2,Splitter,FULLSERVICERESTAURANT KITCHEN - 90.1-2013 SERVICE WATER BOOSTER LOOP DEMAND SPLITTER,PIPE ADIABATIC 8 OUTLET WATER NODE,BOOSTER FULLSERVICERESTAURANT KITCHEN - 90.1-2013 WUC 5.39GPM AT 180F INLET WATER NODE,FULLSERVICERESTAURANT KITCHEN - 90.1-2013 SERVICE WATER BOOSTER LOOP,Demand
     Plant Loop Connector Branches,3,Splitter,FULLSERVICERESTAURANT KITCHEN - 90.1-2013 SERVICE WATER BOOSTER LOOP DEMAND SPLITTER,FULLSERVICERESTAURANT KITCHEN - 90.1-2013 SERVICE WATER BOOSTER LOOP DEMAND INLET BRANCH,FULLSERVICERESTAURANT KITCHEN - 90.1-2013 SERVICE WATER BOOSTER LOOP DEMAND BYPASS BRANCH,FULLSERVICERESTAURANT KITCHEN - 90.1-2013 SERVICE WATER BOOSTER LOOP,Demand
     Plant Loop Connector Nodes,   3,Splitter,FULLSERVICERESTAURANT KITCHEN - 90.1-2013 SERVICE WATER BOOSTER LOOP DEMAND SPLITTER,PIPE ADIABATIC 8 OUTLET WATER NODE,FULLSERVICERESTAURANT KITCHEN - 90.1-2013 SERVICE WATER BOOSTER LOOP DEMAND BYPASS PIPE INLET NODE,FULLSERVICERESTAURANT KITCHEN - 90.1-2013 SERVICE WATER BOOSTER LOOP,Demand
   Plant Loop Connector,Mixer,FULLSERVICERESTAURANT KITCHEN - 90.1-2013 SERVICE WATER BOOSTER LOOP DEMAND MIXER,FULLSERVICERESTAURANT KITCHEN - 90.1-2013 SERVICE WATER BOOSTER LOOP,Demand,3
     Plant Loop Connector Branches,1,Mixer,FULLSERVICERESTAURANT KITCHEN - 90.1-2013 SERVICE WATER BOOSTER LOOP DEMAND MIXER,FULLSERVICERESTAURANT KITCHEN - 90.1-2013 SERVICE WATER BOOSTER LOOP DEMAND BRANCH 1,FULLSERVICERESTAURANT KITCHEN - 90.1-2013 SERVICE WATER BOOSTER LOOP DEMAND OUTLET BRANCH,FULLSERVICERESTAURANT KITCHEN - 90.1-2013 SERVICE WATER BOOSTER LOOP,Demand
     Plant Loop Connector Nodes,   1,Mixer,FULLSERVICERESTAURANT KITCHEN - 90.1-2013 SERVICE WATER BOOSTER LOOP DEMAND MIXER,PIPE ADIABATIC 6 OUTLET WATER NODE,PIPE ADIABATIC 9 INLET WATER NODE,FULLSERVICERESTAURANT KITCHEN - 90.1-2013 SERVICE WATER BOOSTER LOOP,Demand
     Plant Loop Connector Branches,2,Mixer,FULLSERVICERESTAURANT KITCHEN - 90.1-2013 SERVICE WATER BOOSTER LOOP DEMAND MIXER,FULLSERVICERESTAURANT KITCHEN - 90.1-2013 SERVICE WATER BOOSTER LOOP DEMAND BRANCH 2,FULLSERVICERESTAURANT KITCHEN - 90.1-2013 SERVICE WATER BOOSTER LOOP DEMAND OUTLET BRANCH,FULLSERVICERESTAURANT KITCHEN - 90.1-2013 SERVICE WATER BOOSTER LOOP,Demand
     Plant Loop Connector Nodes,   2,Mixer,FULLSERVICERESTAURANT KITCHEN - 90.1-2013 SERVICE WATER BOOSTER LOOP DEMAND MIXER,BOOSTER FULLSERVICERESTAURANT KITCHEN - 90.1-2013 WUC 5.39GPM AT 180F OUTLET WATER NODE,PIPE ADIABATIC 9 INLET WATER NODE,FULLSERVICERESTAURANT KITCHEN - 90.1-2013 SERVICE WATER BOOSTER LOOP,Demand
     Plant Loop Connector Branches,3,Mixer,FULLSERVICERESTAURANT KITCHEN - 90.1-2013 SERVICE WATER BOOSTER LOOP DEMAND MIXER,FULLSERVICERESTAURANT KITCHEN - 90.1-2013 SERVICE WATER BOOSTER LOOP DEMAND BYPASS BRANCH,FULLSERVICERESTAURANT KITCHEN - 90.1-2013 SERVICE WATER BOOSTER LOOP DEMAND OUTLET BRANCH,FULLSERVICERESTAURANT KITCHEN - 90.1-2013 SERVICE WATER BOOSTER LOOP,Demand
     Plant Loop Connector Nodes,   3,Mixer,FULLSERVICERESTAURANT KITCHEN - 90.1-2013 SERVICE WATER BOOSTER LOOP DEMAND MIXER,FULLSERVICERESTAURANT KITCHEN - 90.1-2013 SERVICE WATER BOOSTER LOOP DEMAND BYPASS PIPE OUTLET NODE,PIPE ADIABATIC 9 INLET WATER NODE,FULLSERVICERESTAURANT KITCHEN - 90.1-2013 SERVICE WATER BOOSTER LOOP,Demand
 Plant Loop,FULLSERVICERESTAURANT KITCHEN - 90.1-2013 SERVICE WATER BOOSTER LOOP,Supply,FULLSERVICERESTAURANT KITCHEN - 90.1-2013 SERVICE WATER BOOSTER LOOP SUPPLY INLET NODE,FULLSERVICERESTAURANT KITCHEN - 90.1-2013 SERVICE WATER BOOSTER LOOP SUPPLY OUTLET NODE,FULLSERVICERESTAURANT KITCHEN - 90.1-2013 SERVICE WATER BOOSTER LOOP SUPPLY BRANCHES,FULLSERVICERESTAURANT KITCHEN - 90.1-2013 SERVICE WATER BOOSTER LOOP SUPPLY CONNECTOR LIST
   Plant Loop Connector,Splitter,FULLSERVICERESTAURANT KITCHEN - 90.1-2013 SERVICE WATER BOOSTER LOOP SUPPLY SPLITTER,FULLSERVICERESTAURANT KITCHEN - 90.1-2013 SERVICE WATER BOOSTER LOOP,Supply,2
     Plant Loop Connector Branches,1,Splitter,FULLSERVICERESTAURANT KITCHEN - 90.1-2013 SERVICE WATER BOOSTER LOOP SUPPLY SPLITTER,FULLSERVICERESTAURANT KITCHEN - 90.1-2013 SERVICE WATER BOOSTER LOOP SUPPLY INLET BRANCH,FULLSERVICERESTAURANT KITCHEN - 90.1-2013 SERVICE WATER BOOSTER LOOP SUPPLY BRANCH 1,FULLSERVICERESTAURANT KITCHEN - 90.1-2013 SERVICE WATER BOOSTER LOOP,Supply
     Plant Loop Connector Nodes,   1,Splitter,FULLSERVICERESTAURANT KITCHEN - 90.1-2013 SERVICE WATER BOOSTER LOOP SUPPLY SPLITTER,BOOSTER WATER LOOP PUMP OUTLET WATER NODE,6.0GAL ELECTRICITY BOOSTER WATER HEATER - 65KBTU/HR SUPPLY INLET WATER NODE,FULLSERVICERESTAURANT KITCHEN - 90.1-2013 SERVICE WATER BOOSTER LOOP,Supply
     Plant Loop Connector Branches,2,Splitter,FULLSERVICERESTAURANT KITCHEN - 90.1-2013 SERVICE WATER BOOSTER LOOP SUPPLY SPLITTER,FULLSERVICERESTAURANT KITCHEN - 90.1-2013 SERVICE WATER BOOSTER LOOP SUPPLY INLET BRANCH,FULLSERVICERESTAURANT KITCHEN - 90.1-2013 SERVICE WATER BOOSTER LOOP SUPPLY BRANCH 2,FULLSERVICERESTAURANT KITCHEN - 90.1-2013 SERVICE WATER BOOSTER LOOP,Supply
     Plant Loop Connector Nodes,   2,Splitter,FULLSERVICERESTAURANT KITCHEN - 90.1-2013 SERVICE WATER BOOSTER LOOP SUPPLY SPLITTER,BOOSTER WATER LOOP PUMP OUTLET WATER NODE,PIPE ADIABATIC 5 INLET WATER NODE,FULLSERVICERESTAURANT KITCHEN - 90.1-2013 SERVICE WATER BOOSTER LOOP,Supply
   Plant Loop Connector,Mixer,FULLSERVICERESTAURANT KITCHEN - 90.1-2013 SERVICE WATER BOOSTER LOOP SUPPLY MIXER,FULLSERVICERESTAURANT KITCHEN - 90.1-2013 SERVICE WATER BOOSTER LOOP,Supply,2
     Plant Loop Connector Branches,1,Mixer,FULLSERVICERESTAURANT KITCHEN - 90.1-2013 SERVICE WATER BOOSTER LOOP SUPPLY MIXER,FULLSERVICERESTAURANT KITCHEN - 90.1-2013 SERVICE WATER BOOSTER LOOP SUPPLY BRANCH 1,FULLSERVICERESTAURANT KITCHEN - 90.1-2013 SERVICE WATER BOOSTER LOOP SUPPLY OUTLET BRANCH,FULLSERVICERESTAURANT KITCHEN - 90.1-2013 SERVICE WATER BOOSTER LOOP,Supply
     Plant Loop Connector Nodes,   1,Mixer,FULLSERVICERESTAURANT KITCHEN - 90.1-2013 SERVICE WATER BOOSTER LOOP SUPPLY MIXER,6.0GAL ELECTRICITY BOOSTER WATER HEATER - 65KBTU/HR SUPPLY OUTLET WATER NODE,PIPE ADIABATIC 7 INLET WATER NODE,FULLSERVICERESTAURANT KITCHEN - 90.1-2013 SERVICE WATER BOOSTER LOOP,Supply
     Plant Loop Connector Branches,2,Mixer,FULLSERVICERESTAURANT KITCHEN - 90.1-2013 SERVICE WATER BOOSTER LOOP SUPPLY MIXER,FULLSERVICERESTAURANT KITCHEN - 90.1-2013 SERVICE WATER BOOSTER LOOP SUPPLY BRANCH 2,FULLSERVICERESTAURANT KITCHEN - 90.1-2013 SERVICE WATER BOOSTER LOOP SUPPLY OUTLET BRANCH,FULLSERVICERESTAURANT KITCHEN - 90.1-2013 SERVICE WATER BOOSTER LOOP,Supply
     Plant Loop Connector Nodes,   2,Mixer,FULLSERVICERESTAURANT KITCHEN - 90.1-2013 SERVICE WATER BOOSTER LOOP SUPPLY MIXER,PIPE ADIABATIC 5 OUTLET WATER NODE,PIPE ADIABATIC 7 INLET WATER NODE,FULLSERVICERESTAURANT KITCHEN - 90.1-2013 SERVICE WATER BOOSTER LOOP,Supply
 Plant Loop Supply Connection,FULLSERVICERESTAURANT KITCHEN - 90.1-2013 SERVICE WATER BOOSTER LOOP,FULLSERVICERESTAURANT KITCHEN - 90.1-2013 SERVICE WATER BOOSTER LOOP SUPPLY OUTLET NODE,FULLSERVICERESTAURANT KITCHEN - 90.1-2013 SERVICE WATER BOOSTER LOOP DEMAND INLET NODE
 Plant Loop Return Connection,FULLSERVICERESTAURANT KITCHEN - 90.1-2013 SERVICE WATER BOOSTER LOOP,FULLSERVICERESTAURANT KITCHEN - 90.1-2013 SERVICE WATER BOOSTER LOOP DEMAND OUTLET NODE,FULLSERVICERESTAURANT KITCHEN - 90.1-2013 SERVICE WATER BOOSTER LOOP SUPPLY INLET NODE
 Plant Loop,FULLSERVICERESTAURANT KITCHEN - 90.1-2013 SERVICE WATER LOOP,Demand,FULLSERVICERESTAURANT KITCHEN - 90.1-2013 SERVICE WATER LOOP DEMAND INLET NODE,FULLSERVICERESTAURANT KITCHEN - 90.1-2013 SERVICE WATER LOOP DEMAND OUTLET NODE,FULLSERVICERESTAURANT KITCHEN - 90.1-2013 SERVICE WATER LOOP DEMAND BRANCHES,FULLSERVICERESTAURANT KITCHEN - 90.1-2013 SERVICE WATER LOOP DEMAND CONNECTOR LIST
   Plant Loop Connector,Splitter,FULLSERVICERESTAURANT KITCHEN - 90.1-2013 SERVICE WATER LOOP DEMAND SPLITTER,FULLSERVICERESTAURANT KITCHEN - 90.1-2013 SERVICE WATER LOOP,Demand,4
     Plant Loop Connector Branches,1,Splitter,FULLSERVICERESTAURANT KITCHEN - 90.1-2013 SERVICE WATER LOOP DEMAND SPLITTER,FULLSERVICERESTAURANT KITCHEN - 90.1-2013 SERVICE WATER LOOP DEMAND INLET BRANCH,FULLSERVICERESTAURANT KITCHEN - 90.1-2013 SERVICE WATER LOOP DEMAND BRANCH 1,FULLSERVICERESTAURANT KITCHEN - 90.1-2013 SERVICE WATER LOOP,Demand
     Plant Loop Connector Nodes,   1,Splitter,FULLSERVICERESTAURANT KITCHEN - 90.1-2013 SERVICE WATER LOOP DEMAND SPLITTER,FULLSERVICERESTAURANT KITCHEN - 90.1-2013 SERVICE WATER LOOP PIPE 20.0FT OUTLET WATER NODE,PIPE ADIABATIC 2 INLET WATER NODE,FULLSERVICERESTAURANT KITCHEN - 90.1-2013 SERVICE WATER LOOP,Demand
     Plant Loop Connector Branches,2,Splitter,FULLSERVICERESTAURANT KITCHEN - 90.1-2013 SERVICE WATER LOOP DEMAND SPLITTER,FULLSERVICERESTAURANT KITCHEN - 90.1-2013 SERVICE WATER LOOP DEMAND INLET BRANCH,FULLSERVICERESTAURANT KITCHEN - 90.1-2013 SERVICE WATER LOOP DEMAND BRANCH 2,FULLSERVICERESTAURANT KITCHEN - 90.1-2013 SERVICE WATER LOOP,Demand
     Plant Loop Connector Nodes,   2,Splitter,FULLSERVICERESTAURANT KITCHEN - 90.1-2013 SERVICE WATER LOOP DEMAND SPLITTER,FULLSERVICERESTAURANT KITCHEN - 90.1-2013 SERVICE WATER LOOP PIPE 20.0FT OUTLET WATER NODE,FULLSERVICERESTAURANT KITCHEN - 90.1-2013 WUC 3.6GPM AT 140F INLET WATER NODE,FULLSERVICERESTAURANT KITCHEN - 90.1-2013 SERVICE WATER LOOP,Demand
     Plant Loop Connector Branches,3,Splitter,FULLSERVICERESTAURANT KITCHEN - 90.1-2013 SERVICE WATER LOOP DEMAND SPLITTER,FULLSERVICERESTAURANT KITCHEN - 90.1-2013 SERVICE WATER LOOP DEMAND INLET BRANCH,FULLSERVICERESTAURANT KITCHEN - 90.1-2013 SERVICE WATER LOOP DEMAND BRANCH 3,FULLSERVICERESTAURANT KITCHEN - 90.1-2013 SERVICE WATER LOOP,Demand
     Plant Loop Connector Nodes,   3,Splitter,FULLSERVICERESTAURANT KITCHEN - 90.1-2013 SERVICE WATER LOOP DEMAND SPLITTER,FULLSERVICERESTAURANT KITCHEN - 90.1-2013 SERVICE WATER LOOP PIPE 20.0FT OUTLET WATER NODE,HX FOR BOOSTER WATER HEATING DEMAND INLET WATER NODE,FULLSERVICERESTAURANT KITCHEN - 90.1-2013 SERVICE WATER LOOP,Demand
     Plant Loop Connector Branches,4,Splitter,FULLSERVICERESTAURANT KITCHEN - 90.1-2013 SERVICE WATER LOOP DEMAND SPLITTER,FULLSERVICERESTAURANT KITCHEN - 90.1-2013 SERVICE WATER LOOP DEMAND INLET BRANCH,FULLSERVICERESTAURANT KITCHEN - 90.1-2013 SERVICE WATER LOOP DEMAND BYPASS BRANCH,FULLSERVICERESTAURANT KITCHEN - 90.1-2013 SERVICE WATER LOOP,Demand
     Plant Loop Connector Nodes,   4,Splitter,FULLSERVICERESTAURANT KITCHEN - 90.1-2013 SERVICE WATER LOOP DEMAND SPLITTER,FULLSERVICERESTAURANT KITCHEN - 90.1-2013 SERVICE WATER LOOP PIPE 20.0FT OUTLET WATER NODE,FULLSERVICERESTAURANT KITCHEN - 90.1-2013 SERVICE WATER LOOP DEMAND BYPASS PIPE INLET NODE,FULLSERVICERESTAURANT KITCHEN - 90.1-2013 SERVICE WATER LOOP,Demand
   Plant Loop Connector,Mixer,FULLSERVICERESTAURANT KITCHEN - 90.1-2013 SERVICE WATER LOOP DEMAND MIXER,FULLSERVICERESTAURANT KITCHEN - 90.1-2013 SERVICE WATER LOOP,Demand,4
     Plant Loop Connector Branches,1,Mixer,FULLSERVICERESTAURANT KITCHEN - 90.1-2013 SERVICE WATER LOOP DEMAND MIXER,FULLSERVICERESTAURANT KITCHEN - 90.1-2013 SERVICE WATER LOOP DEMAND BRANCH 1,FULLSERVICERESTAURANT KITCHEN - 90.1-2013 SERVICE WATER LOOP DEMAND OUTLET BRANCH,FULLSERVICERESTAURANT KITCHEN - 90.1-2013 SERVICE WATER LOOP,Demand
     Plant Loop Connector Nodes,   1,Mixer,FULLSERVICERESTAURANT KITCHEN - 90.1-2013 SERVICE WATER LOOP DEMAND MIXER,PIPE ADIABATIC 2 OUTLET WATER NODE,PIPE ADIABATIC 4 INLET WATER NODE,FULLSERVICERESTAURANT KITCHEN - 90.1-2013 SERVICE WATER LOOP,Demand
     Plant Loop Connector Branches,2,Mixer,FULLSERVICERESTAURANT KITCHEN - 90.1-2013 SERVICE WATER LOOP DEMAND MIXER,FULLSERVICERESTAURANT KITCHEN - 90.1-2013 SERVICE WATER LOOP DEMAND BRANCH 2,FULLSERVICERESTAURANT KITCHEN - 90.1-2013 SERVICE WATER LOOP DEMAND OUTLET BRANCH,FULLSERVICERESTAURANT KITCHEN - 90.1-2013 SERVICE WATER LOOP,Demand
     Plant Loop Connector Nodes,   2,Mixer,FULLSERVICERESTAURANT KITCHEN - 90.1-2013 SERVICE WATER LOOP DEMAND MIXER,FULLSERVICERESTAURANT KITCHEN - 90.1-2013 WUC 3.6GPM AT 140F OUTLET WATER NODE,PIPE ADIABATIC 4 INLET WATER NODE,FULLSERVICERESTAURANT KITCHEN - 90.1-2013 SERVICE WATER LOOP,Demand
     Plant Loop Connector Branches,3,Mixer,FULLSERVICERESTAURANT KITCHEN - 90.1-2013 SERVICE WATER LOOP DEMAND MIXER,FULLSERVICERESTAURANT KITCHEN - 90.1-2013 SERVICE WATER LOOP DEMAND BRANCH 3,FULLSERVICERESTAURANT KITCHEN - 90.1-2013 SERVICE WATER LOOP DEMAND OUTLET BRANCH,FULLSERVICERESTAURANT KITCHEN - 90.1-2013 SERVICE WATER LOOP,Demand
     Plant Loop Connector Nodes,   3,Mixer,FULLSERVICERESTAURANT KITCHEN - 90.1-2013 SERVICE WATER LOOP DEMAND MIXER,MAINS WATER MAKEUP FOR SWH BOOSTER OUTLET WATER NODE,PIPE ADIABATIC 4 INLET WATER NODE,FULLSERVICERESTAURANT KITCHEN - 90.1-2013 SERVICE WATER LOOP,Demand
     Plant Loop Connector Branches,4,Mixer,FULLSERVICERESTAURANT KITCHEN - 90.1-2013 SERVICE WATER LOOP DEMAND MIXER,FULLSERVICERESTAURANT KITCHEN - 90.1-2013 SERVICE WATER LOOP DEMAND BYPASS BRANCH,FULLSERVICERESTAURANT KITCHEN - 90.1-2013 SERVICE WATER LOOP DEMAND OUTLET BRANCH,FULLSERVICERESTAURANT KITCHEN - 90.1-2013 SERVICE WATER LOOP,Demand
     Plant Loop Connector Nodes,   4,Mixer,FULLSERVICERESTAURANT KITCHEN - 90.1-2013 SERVICE WATER LOOP DEMAND MIXER,FULLSERVICERESTAURANT KITCHEN - 90.1-2013 SERVICE WATER LOOP DEMAND BYPASS PIPE OUTLET NODE,PIPE ADIABATIC 4 INLET WATER NODE,FULLSERVICERESTAURANT KITCHEN - 90.1-2013 SERVICE WATER LOOP,Demand
 Plant Loop,FULLSERVICERESTAURANT KITCHEN - 90.1-2013 SERVICE WATER LOOP,Supply,FULLSERVICERESTAURANT KITCHEN - 90.1-2013 SERVICE WATER LOOP SUPPLY INLET NODE,FULLSERVICERESTAURANT KITCHEN - 90.1-2013 SERVICE WATER LOOP SUPPLY OUTLET NODE,FULLSERVICERESTAURANT KITCHEN - 90.1-2013 SERVICE WATER LOOP SUPPLY BRANCHES,FULLSERVICERESTAURANT KITCHEN - 90.1-2013 SERVICE WATER LOOP SUPPLY CONNECTOR LIST
   Plant Loop Connector,Splitter,FULLSERVICERESTAURANT KITCHEN - 90.1-2013 SERVICE WATER LOOP SUPPLY SPLITTER,FULLSERVICERESTAURANT KITCHEN - 90.1-2013 SERVICE WATER LOOP,Supply,2
     Plant Loop Connector Branches,1,Splitter,FULLSERVICERESTAURANT KITCHEN - 90.1-2013 SERVICE WATER LOOP SUPPLY SPLITTER,FULLSERVICERESTAURANT KITCHEN - 90.1-2013 SERVICE WATER LOOP SUPPLY INLET BRANCH,FULLSERVICERESTAURANT KITCHEN - 90.1-2013 SERVICE WATER LOOP SUPPLY BRANCH 1,FULLSERVICERESTAURANT KITCHEN - 90.1-2013 SERVICE WATER LOOP,Supply
     Plant Loop Connector Nodes,   1,Splitter,FULLSERVICERESTAURANT KITCHEN - 90.1-2013 SERVICE WATER LOOP SUPPLY SPLITTER,FULLSERVICERESTAURANT KITCHEN - 90.1-2013 SERVICE WATER LOOP WATER MAINS PRESSURE DRIVEN OUTLET WATER NODE,340GAL NATURALGAS WATER HEATER - 340KBTU/HR SUPPLY INLET WATER NODE,FULLSERVICERESTAURANT KITCHEN - 90.1-2013 SERVICE WATER LOOP,Supply
     Plant Loop Connector Branches,2,Splitter,FULLSERVICERESTAURANT KITCHEN - 90.1-2013 SERVICE WATER LOOP SUPPLY SPLITTER,FULLSERVICERESTAURANT KITCHEN - 90.1-2013 SERVICE WATER LOOP SUPPLY INLET BRANCH,FULLSERVICERESTAURANT KITCHEN - 90.1-2013 SERVICE WATER LOOP SUPPLY BRANCH 2,FULLSERVICERESTAURANT KITCHEN - 90.1-2013 SERVICE WATER LOOP,Supply
     Plant Loop Connector Nodes,   2,Splitter,FULLSERVICERESTAURANT KITCHEN - 90.1-2013 SERVICE WATER LOOP SUPPLY SPLITTER,FULLSERVICERESTAURANT KITCHEN - 90.1-2013 SERVICE WATER LOOP WATER MAINS PRESSURE DRIVEN OUTLET WATER NODE,PIPE ADIABATIC 1 INLET WATER NODE,FULLSERVICERESTAURANT KITCHEN - 90.1-2013 SERVICE WATER LOOP,Supply
   Plant Loop Connector,Mixer,FULLSERVICERESTAURANT KITCHEN - 90.1-2013 SERVICE WATER LOOP SUPPLY MIXER,FULLSERVICERESTAURANT KITCHEN - 90.1-2013 SERVICE WATER LOOP,Supply,2
     Plant Loop Connector Branches,1,Mixer,FULLSERVICERESTAURANT KITCHEN - 90.1-2013 SERVICE WATER LOOP SUPPLY MIXER,FULLSERVICERESTAURANT KITCHEN - 90.1-2013 SERVICE WATER LOOP SUPPLY BRANCH 1,FULLSERVICERESTAURANT KITCHEN - 90.1-2013 SERVICE WATER LOOP SUPPLY OUTLET BRANCH,FULLSERVICERESTAURANT KITCHEN - 90.1-2013 SERVICE WATER LOOP,Supply
     Plant Loop Connector Nodes,   1,Mixer,FULLSERVICERESTAURANT KITCHEN - 90.1-2013 SERVICE WATER LOOP SUPPLY MIXER,340GAL NATURALGAS WATER HEATER - 340KBTU/HR SUPPLY OUTLET WATER NODE,PIPE ADIABATIC 3 INLET WATER NODE,FULLSERVICERESTAURANT KITCHEN - 90.1-2013 SERVICE WATER LOOP,Supply
     Plant Loop Connector Branches,2,Mixer,FULLSERVICERESTAURANT KITCHEN - 90.1-2013 SERVICE WATER LOOP SUPPLY MIXER,FULLSERVICERESTAURANT KITCHEN - 90.1-2013 SERVICE WATER LOOP SUPPLY BRANCH 2,FULLSERVICERESTAURANT KITCHEN - 90.1-2013 SERVICE WATER LOOP SUPPLY OUTLET BRANCH,FULLSERVICERESTAURANT KITCHEN - 90.1-2013 SERVICE WATER LOOP,Supply
     Plant Loop Connector Nodes,   2,Mixer,FULLSERVICERESTAURANT KITCHEN - 90.1-2013 SERVICE WATER LOOP SUPPLY MIXER,PIPE ADIABATIC 1 OUTLET WATER NODE,PIPE ADIABATIC 3 INLET WATER NODE,FULLSERVICERESTAURANT KITCHEN - 90.1-2013 SERVICE WATER LOOP,Supply
 Plant Loop Supply Connection,FULLSERVICERESTAURANT KITCHEN - 90.1-2013 SERVICE WATER LOOP,FULLSERVICERESTAURANT KITCHEN - 90.1-2013 SERVICE WATER LOOP SUPPLY OUTLET NODE,FULLSERVICERESTAURANT KITCHEN - 90.1-2013 SERVICE WATER LOOP DEMAND INLET NODE
 Plant Loop Return Connection,FULLSERVICERESTAURANT KITCHEN - 90.1-2013 SERVICE WATER LOOP,FULLSERVICERESTAURANT KITCHEN - 90.1-2013 SERVICE WATER LOOP DEMAND OUTLET NODE,FULLSERVICERESTAURANT KITCHEN - 90.1-2013 SERVICE WATER LOOP SUPPLY INLET NODE
 Plant Loop,HOT WATER LOOP,Demand,HOT WATER LOOP DEMAND INLET NODE,HOT WATER LOOP DEMAND OUTLET NODE,HOT WATER LOOP DEMAND BRANCHES,HOT WATER LOOP DEMAND CONNECTOR LIST
   Plant Loop Connector,Splitter,HOT WATER LOOP DEMAND SPLITTER,HOT WATER LOOP,Demand,2
     Plant Loop Connector Branches,1,Splitter,HOT WATER LOOP DEMAND SPLITTER,HOT WATER LOOP DEMAND INLET BRANCH,HOT WATER LOOP DEMAND BRANCH 1,HOT WATER LOOP,Demand
     Plant Loop Connector Nodes,   1,Splitter,HOT WATER LOOP DEMAND SPLITTER,HOT WATER LOOP DEMAND INLET OUTLET WATER NODE,HOT WATER LOOP COIL BYPASS INLET WATER NODE,HOT WATER LOOP,Demand
     Plant Loop Connector Branches,2,Splitter,HOT WATER LOOP DEMAND SPLITTER,HOT WATER LOOP DEMAND INLET BRANCH,HOT WATER LOOP DEMAND BYPASS BRANCH,HOT WATER LOOP,Demand
     Plant Loop Connector Nodes,   2,Splitter,HOT WATER LOOP DEMAND SPLITTER,HOT WATER LOOP DEMAND INLET OUTLET WATER NODE,HOT WATER LOOP DEMAND BYPASS PIPE INLET NODE,HOT WATER LOOP,Demand
   Plant Loop Connector,Mixer,HOT WATER LOOP DEMAND MIXER,HOT WATER LOOP,Demand,2
     Plant Loop Connector Branches,1,Mixer,HOT WATER LOOP DEMAND MIXER,HOT WATER LOOP DEMAND BRANCH 1,HOT WATER LOOP DEMAND OUTLET BRANCH,HOT WATER LOOP,Demand
     Plant Loop Connector Nodes,   1,Mixer,HOT WATER LOOP DEMAND MIXER,HOT WATER LOOP COIL BYPASS OUTLET WATER NODE,HOT WATER LOOP DEMAND OUTLET INLET WATER NODE,HOT WATER LOOP,Demand
     Plant Loop Connector Branches,2,Mixer,HOT WATER LOOP DEMAND MIXER,HOT WATER LOOP DEMAND BYPASS BRANCH,HOT WATER LOOP DEMAND OUTLET BRANCH,HOT WATER LOOP,Demand
     Plant Loop Connector Nodes,   2,Mixer,HOT WATER LOOP DEMAND MIXER,HOT WATER LOOP DEMAND BYPASS PIPE OUTLET NODE,HOT WATER LOOP DEMAND OUTLET INLET WATER NODE,HOT WATER LOOP,Demand
 Plant Loop,HOT WATER LOOP,Supply,HOT WATER LOOP SUPPLY INLET NODE,HOT WATER LOOP SUPPLY OUTLET NODE,HOT WATER LOOP SUPPLY BRANCHES,HOT WATER LOOP SUPPLY CONNECTOR LIST
   Plant Loop Connector,Splitter,HOT WATER LOOP SUPPLY SPLITTER,HOT WATER LOOP,Supply,2
     Plant Loop Connector Branches,1,Splitter,HOT WATER LOOP SUPPLY SPLITTER,HOT WATER LOOP SUPPLY INLET BRANCH,HOT WATER LOOP SUPPLY BRANCH 1,HOT WATER LOOP,Supply
     Plant Loop Connector Nodes,   1,Splitter,HOT WATER LOOP SUPPLY SPLITTER,HOT WATER LOOP PUMP OUTLET WATER NODE,BOILER INLET WATER NODE,HOT WATER LOOP,Supply
     Plant Loop Connector Branches,2,Splitter,HOT WATER LOOP SUPPLY SPLITTER,HOT WATER LOOP SUPPLY INLET BRANCH,HOT WATER LOOP SUPPLY BRANCH 2,HOT WATER LOOP,Supply
     Plant Loop Connector Nodes,   2,Splitter,HOT WATER LOOP SUPPLY SPLITTER,HOT WATER LOOP PUMP OUTLET WATER NODE,HOT WATER LOOP SUPPLY EQUIPMENT BYPASS INLET WATER NODE,HOT WATER LOOP,Supply
   Plant Loop Connector,Mixer,HOT WATER LOOP SUPPLY MIXER,HOT WATER LOOP,Supply,2
     Plant Loop Connector Branches,1,Mixer,HOT WATER LOOP SUPPLY MIXER,HOT WATER LOOP SUPPLY BRANCH 1,HOT WATER LOOP SUPPLY OUTLET BRANCH,HOT WATER LOOP,Supply
     Plant Loop Connector Nodes,   1,Mixer,HOT WATER LOOP SUPPLY MIXER,BOILER OUTLET WATER NODE,HOT WATER LOOP SUPPLY OUTLET INLET WATER NODE,HOT WATER LOOP,Supply
     Plant Loop Connector Branches,2,Mixer,HOT WATER LOOP SUPPLY MIXER,HOT WATER LOOP SUPPLY BRANCH 2,HOT WATER LOOP SUPPLY OUTLET BRANCH,HOT WATER LOOP,Supply
     Plant Loop Connector Nodes,   2,Mixer,HOT WATER LOOP SUPPLY MIXER,HOT WATER LOOP SUPPLY EQUIPMENT BYPASS OUTLET WATER NODE,HOT WATER LOOP SUPPLY OUTLET INLET WATER NODE,HOT WATER LOOP,Supply
 Plant Loop Supply Connection,HOT WATER LOOP,HOT WATER LOOP SUPPLY OUTLET NODE,HOT WATER LOOP DEMAND INLET NODE
 Plant Loop Return Connection,HOT WATER LOOP,HOT WATER LOOP DEMAND OUTLET NODE,HOT WATER LOOP SUPPLY INLET NODE
! ===============================================================
! <# Condenser Loops>,<Number of Condenser Loops>
 #Condenser Loops,0
! <Condenser Loop>,<Condenser Loop Name>,<Loop Type>,<Inlet Node Name>,<Outlet Node Name>,<Branch List>,<Connector List>
! <Condenser Loop Connector>,<Connector Type>,<Connector Name>,<Loop Name>,<Loop Type>,<Number of Inlets/Outlets>
! <Condenser Loop Connector Branches>,<Connector Node Count>,<Connector Type>,<Connector Name>,<Inlet Branch>,<Outlet Branch>,<Loop Name>,<Loop Type>
! <Condenser Loop Connector Nodes>,<Connector Node Count>,<Connector Type>,<Connector Name>,<Inlet Node>,<Outlet Node>,<Loop Name>,<Loop Type>
! <Condenser Loop Supply Connection>,<Condenser Loop Name>,<Supply Side Outlet Node Name>,<Demand Side Inlet Node Name>
! <Condenser Loop Return Connection>,<Condenser Loop Name>,<Demand Side Outlet Node Name>,<Supply Side Inlet Node Name>
! ===============================================================
! <# Controlled Zones>,<Number of Controlled Zones>
 #Controlled Zones,5
! <Controlled Zone>,<Controlled Zone Name>,<Equip List Name>,<Control List Name>,<Zone Node Name>,<# Inlet Nodes>,<# Exhaust Nodes>,<# Return Nodes>
! <Controlled Zone Inlet>,<Inlet Node Count>,<Controlled Zone Name>,<Supply Air Inlet Node Name>,<SD Sys:Cooling/Heating [DD:Cooling] Inlet Node Name>,<DD Sys:Heating Inlet Node Name>
! <Controlled Zone Exhaust>,<Exhaust Node Count>,<Controlled Zone Name>,<Exhaust Air Node Name>
 Controlled Zone,BUILDING STORY 1 THERMALZONE,BUILDING STORY 1 THERMALZONE EQUIPMENT LIST,,BUILDING STORY 1 THERMALZONE ZONE AIR NODE,1,0,1
   Controlled Zone Inlet,1,BUILDING STORY 1 THERMALZONE,BUILDING STORY 1 THERMALZONE PSZ-AC DIFFUSER OUTLET AIR NODE,BUILDING STORY 1 THERMALZONE PSZ-AC DIFFUSER INLET AIR NODE,N/A
   Controlled Zone Return,1,BUILDING STORY 1 THERMALZONE,BUILDING STORY 1 THERMALZONE RETURN AIR NODE
 Controlled Zone,BUILDING STORY 1 THERMALZONE 1,BUILDING STORY 1 THERMALZONE 1 EQUIPMENT LIST,,BUILDING STORY 1 THERMALZONE 1 ZONE AIR NODE,1,0,1
[...]
 Non-Parent Node Connection,BUILDING STORY 1 THERMALZONE 4 PSZ-AC DEMAND OUTLET NODE,AIRLOOPHVAC:ZONEMIXER,AIR LOOP HVAC ZONE MIXER 4,Outlet,1
 Non-Parent Node Connection,BUILDING STORY 1 THERMALZONE 4 RETURN AIR NODE,AIRLOOPHVAC:ZONEMIXER,AIR LOOP HVAC ZONE MIXER 4,Inlet,1
 Non-Parent Node Connection,BUILDING STORY 1 THERMALZONE PSZ-AC DEMAND OUTLET NODE,AIRLOOPHVAC:ZONEMIXER,AIR LOOP HVAC ZONE MIXER 2,Outlet,1
 Non-Parent Node Connection,BUILDING STORY 1 THERMALZONE RETURN AIR NODE,AIRLOOPHVAC:ZONEMIXER,AIR LOOP HVAC ZONE MIXER 2,Inlet,1
 Non-Parent Node Connection,BUILDING STORY 1 THERMALZONE 1 PSZ-AC MIXED AIR NODE,OUTDOORAIR:MIXER,BUILDING STORY 1 THERMALZONE 1 PSZ-AC OA SYSTEM OUTDOOR AIR MIXER,Outlet,1
 Non-Parent Node Connection,NODE 2,OUTDOORAIR:MIXER,BUILDING STORY 1 THERMALZONE 1 PSZ-AC OA SYSTEM OUTDOOR AIR MIXER,Inlet,1
 Non-Parent Node Connection,NODE 3,OUTDOORAIR:MIXER,BUILDING STORY 1 THERMALZONE 1 PSZ-AC OA SYSTEM OUTDOOR AIR MIXER,ReliefAir,1
 Non-Parent Node Connection,BUILDING STORY 1 THERMALZONE 1 PSZ-AC SUPPLY INLET NODE,OUTDOORAIR:MIXER,BUILDING STORY 1 THERMALZONE 1 PSZ-AC OA SYSTEM OUTDOOR AIR MIXER,Inlet,1
 Non-Parent Node Connection,BUILDING STORY 1 THERMALZONE 2 PSZ-AC MIXED AIR NODE,OUTDOORAIR:MIXER,BUILDING STORY 1 THERMALZONE 2 PSZ-AC OA SYSTEM OUTDOOR AIR MIXER,Outlet,1
 Non-Parent Node Connection,NODE 4,OUTDOORAIR:MIXER,BUILDING STORY 1 THERMALZONE 2 PSZ-AC OA SYSTEM OUTDOOR AIR MIXER,Inlet,1
 Non-Parent Node Connection,NODE 5,OUTDOORAIR:MIXER,BUILDING STORY 1 THERMALZONE 2 PSZ-AC OA SYSTEM OUTDOOR AIR MIXER,ReliefAir,1
 Non-Parent Node Connection,BUILDING STORY 1 THERMALZONE 2 PSZ-AC SUPPLY INLET NODE,OUTDOORAIR:MIXER,BUILDING STORY 1 THERMALZONE 2 PSZ-AC OA SYSTEM OUTDOOR AIR MIXER,Inlet,1
 Non-Parent Node Connection,BUILDING STORY 1 THERMALZONE 3 PSZ-AC MIXED AIR NODE,OUTDOORAIR:MIXER,BUILDING STORY 1 THERMALZONE 3 PSZ-AC OA SYSTEM OUTDOOR AIR MIXER,Outlet,1
 Non-Parent Node Connection,NODE 6,OUTDOORAIR:MIXER,BUILDING STORY 1 THERMALZONE 3 PSZ-AC OA SYSTEM OUTDOOR AIR MIXER,Inlet,1
 Non-Parent Node Connection,NODE 7,OUTDOORAIR:MIXER,BUILDING STORY 1 THERMALZONE 3 PSZ-AC OA SYSTEM OUTDOOR AIR MIXER,ReliefAir,1
 Non-Parent Node Connection,BUILDING STORY 1 THERMALZONE 3 PSZ-AC SUPPLY INLET NODE,OUTDOORAIR:MIXER,BUILDING STORY 1 THERMALZONE 3 PSZ-AC OA SYSTEM OUTDOOR AIR MIXER,Inlet,1
 Non-Parent Node Connection,BUILDING STORY 1 THERMALZONE 4 PSZ-AC MIXED AIR NODE,OUTDOORAIR:MIXER,BUILDING STORY 1 THERMALZONE 4 PSZ-AC OA SYSTEM OUTDOOR AIR MIXER,Outlet,1
 Non-Parent Node Connection,NODE 8,OUTDOORAIR:MIXER,BUILDING STORY 1 THERMALZONE 4 PSZ-AC OA SYSTEM OUTDOOR AIR MIXER,Inlet,1
 Non-Parent Node Connection,NODE 9,OUTDOORAIR:MIXER,BUILDING STORY 1 THERMALZONE 4 PSZ-AC OA SYSTEM OUTDOOR AIR MIXER,ReliefAir,1
 Non-Parent Node Connection,BUILDING STORY 1 THERMALZONE 4 PSZ-AC SUPPLY INLET NODE,OUTDOORAIR:MIXER,BUILDING STORY 1 THERMALZONE 4 PSZ-AC OA SYSTEM OUTDOOR AIR MIXER,Inlet,1
 Non-Parent Node Connection,BUILDING STORY 1 THERMALZONE PSZ-AC MIXED AIR NODE,OUTDOORAIR:MIXER,BUILDING STORY 1 THERMALZONE PSZ-AC OA SYSTEM OUTDOOR AIR MIXER,Outlet,1
 Non-Parent Node Connection,NODE 10,OUTDOORAIR:MIXER,BUILDING STORY 1 THERMALZONE PSZ-AC OA SYSTEM OUTDOOR AIR MIXER,Inlet,1
 Non-Parent Node Connection,NODE 11,OUTDOORAIR:MIXER,BUILDING STORY 1 THERMALZONE PSZ-AC OA SYSTEM OUTDOOR AIR MIXER,ReliefAir,1
 Non-Parent Node Connection,BUILDING STORY 1 THERMALZONE PSZ-AC SUPPLY INLET NODE,OUTDOORAIR:MIXER,BUILDING STORY 1 THERMALZONE PSZ-AC OA SYSTEM OUTDOOR AIR MIXER,Inlet,1
 Non-Parent Node Connection,BUILDING STORY 1 THERMALZONE 1 PSZ-AC ELECTRIC BACKUP HTG COIL OUTLET AIR NODE,FAN:CONSTANTVOLUME,BUILDING STORY 1 THERMALZONE 1 PSZ-AC FAN,Inlet,1
 Non-Parent Node Connection,BUILDING STORY 1 THERMALZONE 1 PSZ-AC SUPPLY OUTLET NODE,FAN:CONSTANTVOLUME,BUILDING STORY 1 THERMALZONE 1 PSZ-AC FAN,Outlet,1
 Non-Parent Node Connection,BUILDING STORY 1 THERMALZONE 2 PSZ-AC ELECTRIC BACKUP HTG COIL OUTLET AIR NODE,FAN:CONSTANTVOLUME,BUILDING STORY 1 THERMALZONE 2 PSZ-AC FAN,Inlet,1
 Non-Parent Node Connection,BUILDING STORY 1 THERMALZONE 2 PSZ-AC SUPPLY OUTLET NODE,FAN:CONSTANTVOLUME,BUILDING STORY 1 THERMALZONE 2 PSZ-AC FAN,Outlet,1
 Non-Parent Node Connection,BUILDING STORY 1 THERMALZONE 3 PSZ-AC ELECTRIC BACKUP HTG COIL OUTLET AIR NODE,FAN:CONSTANTVOLUME,BUILDING STORY 1 THERMALZONE 3 PSZ-AC FAN,Inlet,1
 Non-Parent Node Connection,BUILDING STORY 1 THERMALZONE 3 PSZ-AC SUPPLY OUTLET NODE,FAN:CONSTANTVOLUME,BUILDING STORY 1 THERMALZONE 3 PSZ-AC FAN,Outlet,1
 Non-Parent Node Connection,BUILDING STORY 1 THERMALZONE 4 PSZ-AC ELECTRIC BACKUP HTG COIL OUTLET AIR NODE,FAN:CONSTANTVOLUME,BUILDING STORY 1 THERMALZONE 4 PSZ-AC FAN,Inlet,1
 Non-Parent Node Connection,BUILDING STORY 1 THERMALZONE 4 PSZ-AC SUPPLY OUTLET NODE,FAN:CONSTANTVOLUME,BUILDING STORY 1 THERMALZONE 4 PSZ-AC FAN,Outlet,1
 Non-Parent Node Connection,BUILDING STORY 1 THERMALZONE PSZ-AC ELECTRIC BACKUP HTG COIL OUTLET AIR NODE,FAN:CONSTANTVOLUME,BUILDING STORY 1 THERMALZONE PSZ-AC FAN,Inlet,1
 Non-Parent Node Connection,BUILDING STORY 1 THERMALZONE PSZ-AC SUPPLY OUTLET NODE,FAN:CONSTANTVOLUME,BUILDING STORY 1 THERMALZONE PSZ-AC FAN,Outlet,1
 Non-Parent Node Connection,BUILDING STORY 1 THERMALZONE 1 PSZ-AC MIXED AIR NODE,CONTROLLER:OUTDOORAIR,BUILDING STORY 1 THERMALZONE 1 PSZ-AC OA SYSTEM CONTROLLER,Sensor,1
 Non-Parent Node Connection,BUILDING STORY 1 THERMALZONE 1 PSZ-AC OUTDOOR AIR NODE,CONTROLLER:OUTDOORAIR,BUILDING STORY 1 THERMALZONE 1 PSZ-AC OA SYSTEM CONTROLLER,Actuator,1
 Non-Parent Node Connection,NODE 3,CONTROLLER:OUTDOORAIR,BUILDING STORY 1 THERMALZONE 1 PSZ-AC OA SYSTEM CONTROLLER,Actuator,1
 Non-Parent Node Connection,BUILDING STORY 1 THERMALZONE 1 PSZ-AC SUPPLY INLET NODE,CONTROLLER:OUTDOORAIR,BUILDING STORY 1 THERMALZONE 1 PSZ-AC OA SYSTEM CONTROLLER,Sensor,1
 Non-Parent Node Connection,BUILDING STORY 1 THERMALZONE 2 PSZ-AC MIXED AIR NODE,CONTROLLER:OUTDOORAIR,BUILDING STORY 1 THERMALZONE 2 PSZ-AC OA SYSTEM CONTROLLER,Sensor,1
 Non-Parent Node Connection,BUILDING STORY 1 THERMALZONE 2 PSZ-AC OUTDOOR AIR NODE,CONTROLLER:OUTDOORAIR,BUILDING STORY 1 THERMALZONE 2 PSZ-AC OA SYSTEM CONTROLLER,Actuator,1
 Non-Parent Node Connection,NODE 5,CONTROLLER:OUTDOORAIR,BUILDING STORY 1 THERMALZONE 2 PSZ-AC OA SYSTEM CONTROLLER,Actuator,1
 Non-Parent Node Connection,BUILDING STORY 1 THERMALZONE 2 PSZ-AC SUPPLY INLET NODE,CONTROLLER:OUTDOORAIR,BUILDING STORY 1 THERMALZONE 2 PSZ-AC OA SYSTEM CONTROLLER,Sensor,1
 Non-Parent Node Connection,BUILDING STORY 1 THERMALZONE 3 PSZ-AC MIXED AIR NODE,CONTROLLER:OUTDOORAIR,BUILDING STORY 1 THERMALZONE 3 PSZ-AC OA SYSTEM CONTROLLER,Sensor,1
 Non-Parent Node Connection,BUILDING STORY 1 THERMALZONE 3 PSZ-AC OUTDOOR AIR NODE,CONTROLLER:OUTDOORAIR,BUILDING STORY 1 THERMALZONE 3 PSZ-AC OA SYSTEM CONTROLLER,Actuator,1
 Non-Parent Node Connection,NODE 7,CONTROLLER:OUTDOORAIR,BUILDING STORY 1 THERMALZONE 3 PSZ-AC OA SYSTEM CONTROLLER,Actuator,1
 Non-Parent Node Connection,BUILDING STORY 1 THERMALZONE 3 PSZ-AC SUPPLY INLET NODE,CONTROLLER:OUTDOORAIR,BUILDING STORY 1 THERMALZONE 3 PSZ-AC OA SYSTEM CONTROLLER,Sensor,1
 Non-Parent Node Connection,BUILDING STORY 1 THERMALZONE 4 PSZ-AC MIXED AIR NODE,CONTROLLER:OUTDOORAIR,BUILDING STORY 1 THERMALZONE 4 PSZ-AC OA SYSTEM CONTROLLER,Sensor,1
 Non-Parent Node Connection,BUILDING STORY 1 THERMALZONE 4 PSZ-AC OUTDOOR AIR NODE,CONTROLLER:OUTDOORAIR,BUILDING STORY 1 THERMALZONE 4 PSZ-AC OA SYSTEM CONTROLLER,Actuator,1
 Non-Parent Node Connection,NODE 9,CONTROLLER:OUTDOORAIR,BUILDING STORY 1 THERMALZONE 4 PSZ-AC OA SYSTEM CONTROLLER,Actuator,1
 Non-Parent Node Connection,BUILDING STORY 1 THERMALZONE 4 PSZ-AC SUPPLY INLET NODE,CONTROLLER:OUTDOORAIR,BUILDING STORY 1 THERMALZONE 4 PSZ-AC OA SYSTEM CONTROLLER,Sensor,1
 Non-Parent Node Connection,BUILDING STORY 1 THERMALZONE PSZ-AC MIXED AIR NODE,CONTROLLER:OUTDOORAIR,BUILDING STORY 1 THERMALZONE PSZ-AC OA SYSTEM CONTROLLER,Sensor,1
 Non-Parent Node Connection,BUILDING STORY 1 THERMALZONE PSZ-AC OUTDOOR AIR NODE,CONTROLLER:OUTDOORAIR,BUILDING STORY 1 THERMALZONE PSZ-AC OA SYSTEM CONTROLLER,Actuator,1
 Non-Parent Node Connection,NODE 11,CONTROLLER:OUTDOORAIR,BUILDING STORY 1 THERMALZONE PSZ-AC OA SYSTEM CONTROLLER,Actuator,1
 Non-Parent Node Connection,BUILDING STORY 1 THERMALZONE PSZ-AC SUPPLY INLET NODE,CONTROLLER:OUTDOORAIR,BUILDING STORY 1 THERMALZONE PSZ-AC OA SYSTEM CONTROLLER,Sensor,1
 Non-Parent Node Connection,BUILDING STORY 1 THERMALZONE 1 PSZ-AC OUTDOOR AIR NODE,HEATEXCHANGER:AIRTOAIR:SENSIBLEANDLATENT,BUILDING STORY 1 THERMALZONE 1 PSZ-AC ERV,Inlet,1
 Non-Parent Node Connection,NODE 2,HEATEXCHANGER:AIRTOAIR:SENSIBLEANDLATENT,BUILDING STORY 1 THERMALZONE 1 PSZ-AC ERV,Outlet,1
 Non-Parent Node Connection,NODE 3,HEATEXCHANGER:AIRTOAIR:SENSIBLEANDLATENT,BUILDING STORY 1 THERMALZONE 1 PSZ-AC ERV,Inlet,2
 Non-Parent Node Connection,BUILDING STORY 1 THERMALZONE 1 PSZ-AC RELIEF AIR NODE,HEATEXCHANGER:AIRTOAIR:SENSIBLEANDLATENT,BUILDING STORY 1 THERMALZONE 1 PSZ-AC ERV,Outlet,2
 Non-Parent Node Connection,BUILDING STORY 1 THERMALZONE 2 PSZ-AC OUTDOOR AIR NODE,HEATEXCHANGER:AIRTOAIR:SENSIBLEANDLATENT,BUILDING STORY 1 THERMALZONE 2 PSZ-AC ERV,Inlet,1
 Non-Parent Node Connection,NODE 4,HEATEXCHANGER:AIRTOAIR:SENSIBLEANDLATENT,BUILDING STORY 1 THERMALZONE 2 PSZ-AC ERV,Outlet,1
 Non-Parent Node Connection,NODE 5,HEATEXCHANGER:AIRTOAIR:SENSIBLEANDLATENT,BUILDING STORY 1 THERMALZONE 2 PSZ-AC ERV,Inlet,2
 Non-Parent Node Connection,BUILDING STORY 1 THERMALZONE 2 PSZ-AC RELIEF AIR NODE,HEATEXCHANGER:AIRTOAIR:SENSIBLEANDLATENT,BUILDING STORY 1 THERMALZONE 2 PSZ-AC ERV,Outlet,2
 Non-Parent Node Connection,BUILDING STORY 1 THERMALZONE 3 PSZ-AC OUTDOOR AIR NODE,HEATEXCHANGER:AIRTOAIR:SENSIBLEANDLATENT,BUILDING STORY 1 THERMALZONE 3 PSZ-AC ERV,Inlet,1
 Non-Parent Node Connection,NODE 6,HEATEXCHANGER:AIRTOAIR:SENSIBLEANDLATENT,BUILDING STORY 1 THERMALZONE 3 PSZ-AC ERV,Outlet,1
 Non-Parent Node Connection,NODE 7,HEATEXCHANGER:AIRTOAIR:SENSIBLEANDLATENT,BUILDING STORY 1 THERMALZONE 3 PSZ-AC ERV,Inlet,2
 Non-Parent Node Connection,BUILDING STORY 1 THERMALZONE 3 PSZ-AC RELIEF AIR NODE,HEATEXCHANGER:AIRTOAIR:SENSIBLEANDLATENT,BUILDING STORY 1 THERMALZONE 3 PSZ-AC ERV,Outlet,2
 Non-Parent Node Connection,BUILDING STORY 1 THERMALZONE 4 PSZ-AC OUTDOOR AIR NODE,HEATEXCHANGER:AIRTOAIR:SENSIBLEANDLATENT,BUILDING STORY 1 THERMALZONE 4 PSZ-AC ERV,Inlet,1
 Non-Parent Node Connection,NODE 8,HEATEXCHANGER:AIRTOAIR:SENSIBLEANDLATENT,BUILDING STORY 1 THERMALZONE 4 PSZ-AC ERV,Outlet,1
 Non-Parent Node Connection,NODE 9,HEATEXCHANGER:AIRTOAIR:SENSIBLEANDLATENT,BUILDING STORY 1 THERMALZONE 4 PSZ-AC ERV,Inlet,2
 Non-Parent Node Connection,BUILDING STORY 1 THERMALZONE 4 PSZ-AC RELIEF AIR NODE,HEATEXCHANGER:AIRTOAIR:SENSIBLEANDLATENT,BUILDING STORY 1 THERMALZONE 4 PSZ-AC ERV,Outlet,2
 Non-Parent Node Connection,BUILDING STORY 1 THERMALZONE PSZ-AC OUTDOOR AIR NODE,HEATEXCHANGER:AIRTOAIR:SENSIBLEANDLATENT,BUILDING STORY 1 THERMALZONE PSZ-AC ERV,Inlet,1
 Non-Parent Node Connection,NODE 10,HEATEXCHANGER:AIRTOAIR:SENSIBLEANDLATENT,BUILDING STORY 1 THERMALZONE PSZ-AC ERV,Outlet,1
 Non-Parent Node Connection,NODE 11,HEATEXCHANGER:AIRTOAIR:SENSIBLEANDLATENT,BUILDING STORY 1 THERMALZONE PSZ-AC ERV,Inlet,2
 Non-Parent Node Connection,BUILDING STORY 1 THERMALZONE PSZ-AC RELIEF AIR NODE,HEATEXCHANGER:AIRTOAIR:SENSIBLEANDLATENT,BUILDING STORY 1 THERMALZONE PSZ-AC ERV,Outlet,2
 Non-Parent Node Connection,BUILDING STORY 1 THERMALZONE 1 PSZ-AC MIXED AIR NODE,COIL:COOLING:DX:SINGLESPEED,BUILDING STORY 1 THERMALZONE 1 PSZ-AC 1SPD DX AC CLG COIL 169KBTU/HR 10.8EER,Inlet,1
 Non-Parent Node Connection,BUILDING STORY 1 THERMALZONE 1 PSZ-AC 1SPD DX AC CLG COIL OUTLET AIR NODE,COIL:COOLING:DX:SINGLESPEED,BUILDING STORY 1 THERMALZONE 1 PSZ-AC 1SPD DX AC CLG COIL 169KBTU/HR 10.8EER,Outlet,1
 Non-Parent Node Connection,BUILDING STORY 1 THERMALZONE 2 PSZ-AC MIXED AIR NODE,COIL:COOLING:DX:SINGLESPEED,BUILDING STORY 1 THERMALZONE 2 PSZ-AC 1SPD DX AC CLG COIL 60KBTU/HR 14.0SEER,Inlet,1
 Non-Parent Node Connection,BUILDING STORY 1 THERMALZONE 2 PSZ-AC 1SPD DX AC CLG COIL OUTLET AIR NODE,COIL:COOLING:DX:SINGLESPEED,BUILDING STORY 1 THERMALZONE 2 PSZ-AC 1SPD DX AC CLG COIL 60KBTU/HR 14.0SEER,Outlet,1
 Non-Parent Node Connection,BUILDING STORY 1 THERMALZONE 3 PSZ-AC MIXED AIR NODE,COIL:COOLING:DX:SINGLESPEED,BUILDING STORY 1 THERMALZONE 3 PSZ-AC 1SPD DX AC CLG COIL 153KBTU/HR 10.8EER,Inlet,1
 Non-Parent Node Connection,BUILDING STORY 1 THERMALZONE 3 PSZ-AC 1SPD DX AC CLG COIL OUTLET AIR NODE,COIL:COOLING:DX:SINGLESPEED,BUILDING STORY 1 THERMALZONE 3 PSZ-AC 1SPD DX AC CLG COIL 153KBTU/HR 10.8EER,Outlet,1
 Non-Parent Node Connection,BUILDING STORY 1 THERMALZONE 4 PSZ-AC MIXED AIR NODE,COIL:COOLING:DX:SINGLESPEED,BUILDING STORY 1 THERMALZONE 4 PSZ-AC 1SPD DX AC CLG COIL 71KBTU/HR 11.0EER,Inlet,1
 Non-Parent Node Connection,BUILDING STORY 1 THERMALZONE 4 PSZ-AC 1SPD DX AC CLG COIL OUTLET AIR NODE,COIL:COOLING:DX:SINGLESPEED,BUILDING STORY 1 THERMALZONE 4 PSZ-AC 1SPD DX AC CLG COIL 71KBTU/HR 11.0EER,Outlet,1
 Non-Parent Node Connection,BUILDING STORY 1 THERMALZONE PSZ-AC MIXED AIR NODE,COIL:COOLING:DX:SINGLESPEED,BUILDING STORY 1 THERMALZONE PSZ-AC 1SPD DX AC CLG COIL 856KBTU/HR 9.5EER,Inlet,1
 Non-Parent Node Connection,BUILDING STORY 1 THERMALZONE PSZ-AC 1SPD DX AC CLG COIL OUTLET AIR NODE,COIL:COOLING:DX:SINGLESPEED,BUILDING STORY 1 THERMALZONE PSZ-AC 1SPD DX AC CLG COIL 856KBTU/HR 9.5EER,Outlet,1
 Non-Parent Node Connection,BUILDING STORY 1 THERMALZONE 1 PSZ-AC GAS HTG COIL OUTLET AIR NODE,COIL:HEATING:ELECTRIC,BUILDING STORY 1 THERMALZONE 1 PSZ-AC ELECTRIC BACKUP HTG COIL,Inlet,1
 Non-Parent Node Connection,BUILDING STORY 1 THERMALZONE 1 PSZ-AC ELECTRIC BACKUP HTG COIL OUTLET AIR NODE,COIL:HEATING:ELECTRIC,BUILDING STORY 1 THERMALZONE 1 PSZ-AC ELECTRIC BACKUP HTG COIL,Outlet,1
 Non-Parent Node Connection,BUILDING STORY 1 THERMALZONE 1 PSZ-AC ELECTRIC BACKUP HTG COIL OUTLET AIR NODE,COIL:HEATING:ELECTRIC,BUILDING STORY 1 THERMALZONE 1 PSZ-AC ELECTRIC BACKUP HTG COIL,Sensor,1
 Non-Parent Node Connection,BUILDING STORY 1 THERMALZONE 2 PSZ-AC GAS HTG COIL OUTLET AIR NODE,COIL:HEATING:ELECTRIC,BUILDING STORY 1 THERMALZONE 2 PSZ-AC ELECTRIC BACKUP HTG COIL,Inlet,1
 Non-Parent Node Connection,BUILDING STORY 1 THERMALZONE 2 PSZ-AC ELECTRIC BACKUP HTG COIL OUTLET AIR NODE,COIL:HEATING:ELECTRIC,BUILDING STORY 1 THERMALZONE 2 PSZ-AC ELECTRIC BACKUP HTG COIL,Outlet,1
 Non-Parent Node Connection,BUILDING STORY 1 THERMALZONE 2 PSZ-AC ELECTRIC BACKUP HTG COIL OUTLET AIR NODE,COIL:HEATING:ELECTRIC,BUILDING STORY 1 THERMALZONE 2 PSZ-AC ELECTRIC BACKUP HTG COIL,Sensor,1
 Non-Parent Node Connection,BUILDING STORY 1 THERMALZONE 3 PSZ-AC GAS HTG COIL OUTLET AIR NODE,COIL:HEATING:ELECTRIC,BUILDING STORY 1 THERMALZONE 3 PSZ-AC ELECTRIC BACKUP HTG COIL,Inlet,1
 Non-Parent Node Connection,BUILDING STORY 1 THERMALZONE 3 PSZ-AC ELECTRIC BACKUP HTG COIL OUTLET AIR NODE,COIL:HEATING:ELECTRIC,BUILDING STORY 1 THERMALZONE 3 PSZ-AC ELECTRIC BACKUP HTG COIL,Outlet,1
 Non-Parent Node Connection,BUILDING STORY 1 THERMALZONE 3 PSZ-AC ELECTRIC BACKUP HTG COIL OUTLET AIR NODE,COIL:HEATING:ELECTRIC,BUILDING STORY 1 THERMALZONE 3 PSZ-AC ELECTRIC BACKUP HTG COIL,Sensor,1
 Non-Parent Node Connection,BUILDING STORY 1 THERMALZONE 4 PSZ-AC GAS HTG COIL OUTLET AIR NODE,COIL:HEATING:ELECTRIC,BUILDING STORY 1 THERMALZONE 4 PSZ-AC ELECTRIC BACKUP HTG COIL,Inlet,1
 Non-Parent Node Connection,BUILDING STORY 1 THERMALZONE 4 PSZ-AC ELECTRIC BACKUP HTG COIL OUTLET AIR NODE,COIL:HEATING:ELECTRIC,BUILDING STORY 1 THERMALZONE 4 PSZ-AC ELECTRIC BACKUP HTG COIL,Outlet,1
 Non-Parent Node Connection,BUILDING STORY 1 THERMALZONE 4 PSZ-AC ELECTRIC BACKUP HTG COIL OUTLET AIR NODE,COIL:HEATING:ELECTRIC,BUILDING STORY 1 THERMALZONE 4 PSZ-AC ELECTRIC BACKUP HTG COIL,Sensor,1
 Non-Parent Node Connection,BUILDING STORY 1 THERMALZONE PSZ-AC GAS HTG COIL OUTLET AIR NODE,COIL:HEATING:ELECTRIC,BUILDING STORY 1 THERMALZONE PSZ-AC ELECTRIC BACKUP HTG COIL,Inlet,1
 Non-Parent Node Connection,BUILDING STORY 1 THERMALZONE PSZ-AC ELECTRIC BACKUP HTG COIL OUTLET AIR NODE,COIL:HEATING:ELECTRIC,BUILDING STORY 1 THERMALZONE PSZ-AC ELECTRIC BACKUP HTG COIL,Outlet,1
 Non-Parent Node Connection,BUILDING STORY 1 THERMALZONE PSZ-AC ELECTRIC BACKUP HTG COIL OUTLET AIR NODE,COIL:HEATING:ELECTRIC,BUILDING STORY 1 THERMALZONE PSZ-AC ELECTRIC BACKUP HTG COIL,Sensor,1
 Non-Parent Node Connection,BUILDING STORY 1 THERMALZONE 1 PSZ-AC 1SPD DX AC CLG COIL OUTLET AIR NODE,COIL:HEATING:FUEL,BUILDING STORY 1 THERMALZONE 1 PSZ-AC GAS HTG COIL,Inlet,1
 Non-Parent Node Connection,BUILDING STORY 1 THERMALZONE 1 PSZ-AC GAS HTG COIL OUTLET AIR NODE,COIL:HEATING:FUEL,BUILDING STORY 1 THERMALZONE 1 PSZ-AC GAS HTG COIL,Outlet,1
 Non-Parent Node Connection,BUILDING STORY 1 THERMALZONE 1 PSZ-AC GAS HTG COIL OUTLET AIR NODE,COIL:HEATING:FUEL,BUILDING STORY 1 THERMALZONE 1 PSZ-AC GAS HTG COIL,Sensor,1
 Non-Parent Node Connection,BUILDING STORY 1 THERMALZONE 2 PSZ-AC 1SPD DX AC CLG COIL OUTLET AIR NODE,COIL:HEATING:FUEL,BUILDING STORY 1 THERMALZONE 2 PSZ-AC GAS HTG COIL,Inlet,1
 Non-Parent Node Connection,BUILDING STORY 1 THERMALZONE 2 PSZ-AC GAS HTG COIL OUTLET AIR NODE,COIL:HEATING:FUEL,BUILDING STORY 1 THERMALZONE 2 PSZ-AC GAS HTG COIL,Outlet,1
 Non-Parent Node Connection,BUILDING STORY 1 THERMALZONE 2 PSZ-AC GAS HTG COIL OUTLET AIR NODE,COIL:HEATING:FUEL,BUILDING STORY 1 THERMALZONE 2 PSZ-AC GAS HTG COIL,Sensor,1
 Non-Parent Node Connection,BUILDING STORY 1 THERMALZONE 3 PSZ-AC 1SPD DX AC CLG COIL OUTLET AIR NODE,COIL:HEATING:FUEL,BUILDING STORY 1 THERMALZONE 3 PSZ-AC GAS HTG COIL,Inlet,1
 Non-Parent Node Connection,BUILDING STORY 1 THERMALZONE 3 PSZ-AC GAS HTG COIL OUTLET AIR NODE,COIL:HEATING:FUEL,BUILDING STORY 1 THERMALZONE 3 PSZ-AC GAS HTG COIL,Outlet,1
 Non-Parent Node Connection,BUILDING STORY 1 THERMALZONE 3 PSZ-AC GAS HTG COIL OUTLET AIR NODE,COIL:HEATING:FUEL,BUILDING STORY 1 THERMALZONE 3 PSZ-AC GAS HTG COIL,Sensor,1
 Non-Parent Node Connection,BUILDING STORY 1 THERMALZONE 4 PSZ-AC 1SPD DX AC CLG COIL OUTLET AIR NODE,COIL:HEATING:FUEL,BUILDING STORY 1 THERMALZONE 4 PSZ-AC GAS HTG COIL,Inlet,1
 Non-Parent Node Connection,BUILDING STORY 1 THERMALZONE 4 PSZ-AC GAS HTG COIL OUTLET AIR NODE,COIL:HEATING:FUEL,BUILDING STORY 1 THERMALZONE 4 PSZ-AC GAS HTG COIL,Outlet,1
 Non-Parent Node Connection,BUILDING STORY 1 THERMALZONE 4 PSZ-AC GAS HTG COIL OUTLET AIR NODE,COIL:HEATING:FUEL,BUILDING STORY 1 THERMALZONE 4 PSZ-AC GAS HTG COIL,Sensor,1
 Non-Parent Node Connection,BUILDING STORY 1 THERMALZONE PSZ-AC 1SPD DX AC CLG COIL OUTLET AIR NODE,COIL:HEATING:FUEL,BUILDING STORY 1 THERMALZONE PSZ-AC GAS HTG COIL,Inlet,1
 Non-Parent Node Connection,BUILDING STORY 1 THERMALZONE PSZ-AC GAS HTG COIL OUTLET AIR NODE,COIL:HEATING:FUEL,BUILDING STORY 1 THERMALZONE PSZ-AC GAS HTG COIL,Outlet,1
 Non-Parent Node Connection,BUILDING STORY 1 THERMALZONE PSZ-AC GAS HTG COIL OUTLET AIR NODE,COIL:HEATING:FUEL,BUILDING STORY 1 THERMALZONE PSZ-AC GAS HTG COIL,Sensor,1
 Non-Parent Node Connection,BOOSTER WATER LOOP PUMP INLET WATER NODE,PUMP:VARIABLESPEED,BOOSTER WATER LOOP PUMP,Inlet,1
 Non-Parent Node Connection,BOOSTER WATER LOOP PUMP OUTLET WATER NODE,PUMP:VARIABLESPEED,BOOSTER WATER LOOP PUMP,Outlet,1
 Non-Parent Node Connection,FULLSERVICERESTAURANT KITCHEN - 90.1-2013 SERVICE WATER LOOP SUPPLY INLET NODE,PUMP:VARIABLESPEED,FULLSERVICERESTAURANT KITCHEN - 90.1-2013 SERVICE WATER LOOP WATER MAINS PRESSURE DRIVEN,Inlet,1
 Non-Parent Node Connection,FULLSERVICERESTAURANT KITCHEN - 90.1-2013 SERVICE WATER LOOP WATER MAINS PRESSURE DRIVEN OUTLET WATER NODE,PUMP:VARIABLESPEED,FULLSERVICERESTAURANT KITCHEN - 90.1-2013 SERVICE WATER LOOP WATER MAINS PRESSURE DRIVEN,Outlet,1
 Non-Parent Node Connection,HOT WATER LOOP SUPPLY INLET NODE,PUMP:VARIABLESPEED,HOT WATER LOOP PUMP,Inlet,1
 Non-Parent Node Connection,HOT WATER LOOP PUMP OUTLET WATER NODE,PUMP:VARIABLESPEED,HOT WATER LOOP PUMP,Outlet,1
