{
   "completed_at" : "20210302T164935Z",
   "completed_status" : "Success",
   "current_step" : 18,
   "description" : "Restaurant 1",
   "eplusout_err" : "Program Version,EnergyPlus, Version 9.4.0-998c4b761e, YMD=2021.03.02 09:47,\n   ** Warning ** Timestep: Requested number (1) is less than the suggested minimum of 4.\n   **   ~~~   ** Please see entry for Timestep in Input/Output Reference for discussion of considerations.\n   ************* Beginning Zone Sizing Calculations\n   ** Warning ** ProcessScheduleInput: Schedule:Day:Interval=\"ECONOMIZER MAX OA FRACTION 70 PCT DEFAULT\", Blank Schedule Type Limits Name input -- will not be validated.\n   ** Warning ** ProcessScheduleInput: Schedule:Day:Interval=\"SCHEDULE DAY 1\", Blank Schedule Type Limits Name input -- will not be validated.\n   ** Warning ** ProcessScheduleInput: Schedule:Day:Interval=\"SCHEDULE DAY 10\", Blank Schedule Type Limits Name input -- will not be validated.\n   ** Warning ** ProcessScheduleInput: Schedule:Day:Interval=\"SCHEDULE DAY 2\", Blank Schedule Type Limits Name input -- will not be validated.\n   ** Warning ** ProcessScheduleInput: Schedule:Day:Interval=\"SCHEDULE DAY 3\", Blank Schedule Type Limits Name input -- will not be validated.\n   ** Warning ** ProcessScheduleInput: Schedule:Day:Interval=\"SCHEDULE DAY 4\", Blank Schedule Type Limits Name input -- will not be validated.\n   ** Warning ** ProcessScheduleInput: Schedule:Day:Interval=\"SCHEDULE DAY 5\", Blank Schedule Type Limits Name input -- will not be validated.\n   ** Warning ** ProcessScheduleInput: Schedule:Day:Interval=\"SCHEDULE DAY 6\", Blank Schedule Type Limits Name input -- will not be validated.\n   ** Warning ** ProcessScheduleInput: Schedule:Day:Interval=\"SCHEDULE DAY 7\", Blank Schedule Type Limits Name input -- will not be validated.\n   ** Warning ** ProcessScheduleInput: Schedule:Day:Interval=\"SCHEDULE DAY 8\", Blank Schedule Type Limits Name input -- will not be validated.\n   ** Warning ** ProcessScheduleInput: Schedule:Day:Interval=\"SCHEDULE DAY 9\", Blank Schedule Type Limits Name input -- will not be validated.\n   ** Warning ** ProcessScheduleInput: Schedule:Year=\"ECONOMIZER MAX OA FRACTION 70 PCT\", Blank Schedule Type Limits Name input -- will not be validated.\n   ** Warning ** ProcessScheduleInput: Schedule:Constant=\"ALWAYS OFF DISCRETE\", Blank Schedule Type Limits Name input -- will not be validated.\n   ** Warning ** ProcessScheduleInput: Schedule:Constant=\"ALWAYS ON CONTINUOUS\", Blank Schedule Type Limits Name input -- will not be validated.\n   ** Warning ** GetHTSurfaceData: Surfaces with interface to Ground found but no \"Ground Temperatures\" were input.\n   **   ~~~   ** Found first in surface=SURFACE 1\n   **   ~~~   ** Defaults, constant throughout the year of (18.0) will be used.\n   ** Warning ** CheckUsedConstructions: There are 12 nominally unused constructions in input.\n   **   ~~~   ** For explicit details on each unused construction, use Output:Diagnostics,DisplayExtraWarnings;\n   ************* Beginning System Sizing Calculations\n   ************* Beginning Plant Sizing Calculations\n   ** Warning ** GetOAControllerInputs: Controller:MechanicalVentilation=\"CONTROLLER MECHANICAL VENTILATION 2\n   **   ~~~   ** Cannot locate a matching DesignSpecification:ZoneAirDistribution object for Zone=\"BUILDING STORY 1 THERMALZONE\".\n   **   ~~~   ** Using default zone air distribution effectiveness of 1.0 for heating and cooling.\n   ** Warning ** GetOAControllerInputs: Controller:MechanicalVentilation=\"CONTROLLER MECHANICAL VENTILATION 5\n   **   ~~~   ** Cannot locate a matching DesignSpecification:ZoneAirDistribution object for Zone=\"BUILDING STORY 1 THERMALZONE 1\".\n   **   ~~~   ** Using default zone air distribution effectiveness of 1.0 for heating and cooling.\n   ** Warning ** GetOAControllerInputs: Controller:MechanicalVentilation=\"CONTROLLER MECHANICAL VENTILATION 1\n   **   ~~~   ** Cannot locate a matching DesignSpecification:ZoneAirDistribution object for Zone=\"BUILDING STORY 1 THERMALZONE 2\".\n   **   ~~~   ** Using default zone air distribution effectiveness of 1.0 for heating and cooling.\n   ** Warning ** GetOAControllerInputs: Controller:MechanicalVentilation=\"CONTROLLER MECHANICAL VENTILATION 3\n   **   ~~~   ** Cannot locate a matching DesignSpecification:ZoneAirDistribution object for Zone=\"BUILDING STORY 1 THERMALZONE 3\".\n   **   ~~~   ** Using default zone air distribution effectiveness of 1.0 for heating and cooling.\n   ** Warning ** GetOAControllerInputs: Controller:MechanicalVentilation=\"CONTROLLER MECHANICAL VENTILATION 4\n   **   ~~~   ** Cannot locate a matching DesignSpecification:ZoneAirDistribution object for Zone=\"BUILDING STORY 1 THERMALZONE 4\".\n   **   ~~~   ** Using default zone air distribution effectiveness of 1.0 for heating and cooling.\n   ** Warning ** The Standard Ratings is calculated for Coil:Cooling:DX:SingleSpeed = BUILDING STORY 1 THERMALZONE 1 PSZ-AC 1SPD DX AC CLG COIL 169KBTU/HR 10.8EER but not at the AHRI test condition due to curve out of bound.\n   **   ~~~   **  Review the Standard Ratings calculations in the Engineering Reference for this coil type. Also, use Output:Diagnostics, DisplayExtraWarnings for further guidance.\n   ** Warning ** The Standard Ratings is calculated for Coil:Cooling:DX:SingleSpeed = BUILDING STORY 1 THERMALZONE 2 PSZ-AC 1SPD DX AC CLG COIL 60KBTU/HR 14.0SEER but not at the AHRI test condition due to curve out of bound.\n   **   ~~~   **  Review the Standard Ratings calculations in the Engineering Reference for this coil type. Also, use Output:Diagnostics, DisplayExtraWarnings for further guidance.\n   ** Warning ** The Standard Ratings is calculated for Coil:Cooling:DX:SingleSpeed = BUILDING STORY 1 THERMALZONE 3 PSZ-AC 1SPD DX AC CLG COIL 153KBTU/HR 10.8EER but not at the AHRI test condition due to curve out of bound.\n   **   ~~~   **  Review the Standard Ratings calculations in the Engineering Reference for this coil type. Also, use Output:Diagnostics, DisplayExtraWarnings for further guidance.\n   ** Warning ** The Standard Ratings is calculated for Coil:Cooling:DX:SingleSpeed = BUILDING STORY 1 THERMALZONE 4 PSZ-AC 1SPD DX AC CLG COIL 71KBTU/HR 11.0EER but not at the AHRI test condition due to curve out of bound.\n   **   ~~~   **  Review the Standard Ratings calculations in the Engineering Reference for this coil type. Also, use Output:Diagnostics, DisplayExtraWarnings for further guidance.\n   ** Warning ** The Standard Ratings is calculated for Coil:Cooling:DX:SingleSpeed = BUILDING STORY 1 THERMALZONE PSZ-AC 1SPD DX AC CLG COIL 856KBTU/HR 9.5EER but not at the AHRI test condition due to curve out of bound.\n   **   ~~~   **  Review the Standard Ratings calculations in the Engineering Reference for this coil type. Also, use Output:Diagnostics, DisplayExtraWarnings for further guidance.\n   ** Warning ** Check input. Pump nominal power or motor efficiency is set to 0, for pump=BOOSTER WATER LOOP PUMP\n   ** Warning ** Check input. Pump nominal power or motor efficiency is set to 0, for pump=HOT WATER LOOP PUMP\n   ** Warning ** Check input. Pump nominal flow rate is set or calculated = 0, for pump=HOT WATER LOOP PUMP\n   ** Warning ** Meter:Custom=\"HEATREJECTION:OTHERFUELS\", invalid Output Variable or Meter Name=\"HEATREJECTION:FUELOIL#1\".\n   **   ~~~   ** ...will not be shown with the Meter results.\n   ** Warning ** Meter:Custom=\"HEATREJECTION:OTHERFUELS\", invalid Output Variable or Meter Name=\"HEATREJECTION:DIESEL\".\n   **   ~~~   ** ...will not be shown with the Meter results.\n   ** Warning ** Meter:Custom=\"HEATREJECTION:OTHERFUELS\", invalid Output Variable or Meter Name=\"HEATREJECTION:GASOLINE\".\n   **   ~~~   ** ...will not be shown with the Meter results.\n   ** Warning ** Meter:Custom=\"HEATREJECTION:OTHERFUELS\", invalid Output Variable or Meter Name=\"HEATREJECTION:COAL\".\n   **   ~~~   ** ...will not be shown with the Meter results.\n   ** Warning ** Meter:Custom=\"HEATREJECTION:OTHERFUELS\", invalid Output Variable or Meter Name=\"HEATREJECTION:STEAM\".\n   **   ~~~   ** ...will not be shown with the Meter results.\n   ** Warning ** Meter:Custom=\"HEATREJECTION:OTHERFUELS\", no items assigned \n   **   ~~~   ** ...will not be shown with the Meter results. This may be caused by a Meter:Custom be assigned to another Meter:Custom.\n   ** Warning ** Meter:Custom=\"HEATING:OTHERFUELS\", invalid Output Variable or Meter Name=\"HEATING:FUELOIL#1\".\n   **   ~~~   ** ...will not be shown with the Meter results.\n   ** Warning ** Meter:Custom=\"HEATING:OTHERFUELS\", invalid Output Variable or Meter Name=\"HEATING:DIESEL\".\n   **   ~~~   ** ...will not be shown with the Meter results.\n   ** Warning ** Meter:Custom=\"HEATING:OTHERFUELS\", invalid Output Variable or Meter Name=\"HEATING:GASOLINE\".\n   **   ~~~   ** ...will not be shown with the Meter results.\n   ** Warning ** Meter:Custom=\"HEATING:OTHERFUELS\", invalid Output Variable or Meter Name=\"HEATING:COAL\".\n   **   ~~~   ** ...will not be shown with the Meter results.\n   ** Warning ** Meter:Custom=\"HEATING:OTHERFUELS\", invalid Output Variable or Meter Name=\"HEATING:STEAM\".\n   **   ~~~   ** ...will not be shown with the Meter results.\n   ** Warning ** Meter:Custom=\"HEATING:OTHERFUELS\", no items assigned \n   **   ~~~   ** ...will not be shown with the Meter results. This may be caused by a Meter:Custom be assigned to another Meter:Custom.\n   ** Warning ** Meter:Custom=\"WATERSYSTEMS:OTHERFUELS\", invalid Output Variable or Meter Name=\"WATERSYSTEMS:FUELOIL#1\".\n   **   ~~~   ** ...will not be shown with the Meter results.\n   ** Warning ** Meter:Custom=\"WATERSYSTEMS:OTHERFUELS\", invalid Output Variable or Meter Name=\"WATERSYSTEMS:DIESEL\".\n   **   ~~~   ** ...will not be shown with the Meter results.\n   ** Warning ** Meter:Custom=\"WATERSYSTEMS:OTHERFUELS\", invalid Output Variable or Meter Name=\"WATERSYSTEMS:GASOLINE\".\n   **   ~~~   ** ...will not be shown with the Meter results.\n   ** Warning ** Meter:Custom=\"WATERSYSTEMS:OTHERFUELS\", invalid Output Variable or Meter Name=\"WATERSYSTEMS:COAL\".\n   **   ~~~   ** ...will not be shown with the Meter results.\n   ** Warning ** Meter:Custom=\"WATERSYSTEMS:OTHERFUELS\", invalid Output Variable or Meter Name=\"WATERSYSTEMS:STEAM\".\n   **   ~~~   ** ...will not be shown with the Meter results.\n   ** Warning ** Meter:Custom=\"WATERSYSTEMS:OTHERFUELS\", no items assigned \n   **   ~~~   ** ...will not be shown with the Meter results. This may be caused by a Meter:Custom be assigned to another Meter:Custom.\n   ** Warning ** Meter:Custom=\"INTERIOREQUIPMENT:OTHERFUELS\", invalid Output Variable or Meter Name=\"INTERIOREQUIPMENT:FUELOIL#1\".\n   **   ~~~   ** ...will not be shown with the Meter results.\n   ** Warning ** Meter:Custom=\"INTERIOREQUIPMENT:OTHERFUELS\", invalid Output Variable or Meter Name=\"INTERIOREQUIPMENT:DIESEL\".\n   **   ~~~   ** ...will not be shown with the Meter results.\n   ** Warning ** Meter:Custom=\"INTERIOREQUIPMENT:OTHERFUELS\", invalid Output Variable or Meter Name=\"INTERIOREQUIPMENT:GASOLINE\".\n   **   ~~~   ** ...will not be shown with the Meter results.\n   ** Warning ** Meter:Custom=\"INTERIOREQUIPMENT:OTHERFUELS\", invalid Output Variable or Meter Name=\"INTERIOREQUIPMENT:COAL\".\n   **   ~~~   ** ...will not be shown with the Meter results.\n   ** Warning ** Meter:Custom=\"INTERIOREQUIPMENT:OTHERFUELS\", invalid Output Variable or Meter Name=\"INTERIOREQUIPMENT:STEAM\".\n   **   ~~~   ** ...will not be shown with the Meter results.\n   ** Warning ** Meter:Custom=\"INTERIOREQUIPMENT:OTHERFUELS\", no items assigned \n   **   ~~~   ** ...will not be shown with the Meter results. This may be caused by a Meter:Custom be assigned to another Meter:Custom.\n   ** Warning ** Meter:Custom=\"OTHERFUELS:FACILITY\", invalid Output Variable or Meter Name=\"HEATREJECTION:FUELOIL#1\".\n   **   ~~~   ** ...will not be shown with the Meter results.\n   ** Warning ** Meter:Custom=\"OTHERFUELS:FACILITY\", invalid Output Variable or Meter Name=\"HEATREJECTION:DIESEL\".\n   **   ~~~   ** ...will not be shown with the Meter results.\n   ** Warning ** Meter:Custom=\"OTHERFUELS:FACILITY\", invalid Output Variable or Meter Name=\"HEATREJECTION:GASOLINE\".\n   **   ~~~   ** ...will not be shown with the Meter results.\n   ** Warning ** Meter:Custom=\"OTHERFUELS:FACILITY\", invalid Output Variable or Meter Name=\"HEATREJECTION:COAL\".\n   **   ~~~   ** ...will not be shown with the Meter results.\n   ** Warning ** Meter:Custom=\"OTHERFUELS:FACILITY\", invalid Output Variable or Meter Name=\"HEATREJECTION:STEAM\".\n   **   ~~~   ** ...will not be shown with the Meter results.\n   ** Warning ** Meter:Custom=\"OTHERFUELS:FACILITY\", invalid Output Variable or Meter Name=\"HEATING:FUELOIL#1\".\n   **   ~~~   ** ...will not be shown with the Meter results.\n   ** Warning ** Meter:Custom=\"OTHERFUELS:FACILITY\", invalid Output Variable or Meter Name=\"HEATING:DIESEL\".\n   **   ~~~   ** ...will not be shown with the Meter results.\n   ** Warning ** Meter:Custom=\"OTHERFUELS:FACILITY\", invalid Output Variable or Meter Name=\"HEATING:GASOLINE\".\n   **   ~~~   ** ...will not be shown with the Meter results.\n   ** Warning ** Meter:Custom=\"OTHERFUELS:FACILITY\", invalid Output Variable or Meter Name=\"HEATING:COAL\".\n   **   ~~~   ** ...will not be shown with the Meter results.\n   ** Warning ** Meter:Custom=\"OTHERFUELS:FACILITY\", invalid Output Variable or Meter Name=\"HEATING:STEAM\".\n   **   ~~~   ** ...will not be shown with the Meter results.\n   ** Warning ** Meter:Custom=\"OTHERFUELS:FACILITY\", invalid Output Variable or Meter Name=\"WATERSYSTEMS:FUELOIL#1\".\n   **   ~~~   ** ...will not be shown with the Meter results.\n   ** Warning ** Meter:Custom=\"OTHERFUELS:FACILITY\", invalid Output Variable or Meter Name=\"WATERSYSTEMS:DIESEL\".\n   **   ~~~   ** ...will not be shown with the Meter results.\n   ** Warning ** Meter:Custom=\"OTHERFUELS:FACILITY\", invalid Output Variable or Meter Name=\"WATERSYSTEMS:GASOLINE\".\n   **   ~~~   ** ...will not be shown with the Meter results.\n   ** Warning ** Meter:Custom=\"OTHERFUELS:FACILITY\", invalid Output Variable or Meter Name=\"WATERSYSTEMS:COAL\".\n   **   ~~~   ** ...will not be shown with the Meter results.\n   ** Warning ** Meter:Custom=\"OTHERFUELS:FACILITY\", invalid Output Variable or Meter Name=\"WATERSYSTEMS:STEAM\".\n   **   ~~~   ** ...will not be shown with the Meter results.\n   ** Warning ** Meter:Custom=\"OTHERFUELS:FACILITY\", invalid Output Variable or Meter Name=\"INTERIOREQUIPMENT:FUELOIL#1\".\n   **   ~~~   ** ...will not be shown with the Meter results.\n   ** Warning ** Meter:Custom=\"OTHERFUELS:FACILITY\", invalid Output Variable or Meter Name=\"INTERIOREQUIPMENT:DIESEL\".\n   **   ~~~   ** ...will not be shown with the Meter results.\n   ** Warning ** Meter:Custom=\"OTHERFUELS:FACILITY\", invalid Output Variable or Meter Name=\"INTERIOREQUIPMENT:GASOLINE\".\n   **   ~~~   ** ...will not be shown with the Meter results.\n   ** Warning ** Meter:Custom=\"OTHERFUELS:FACILITY\", invalid Output Variable or Meter Name=\"INTERIOREQUIPMENT:COAL\".\n   **   ~~~   ** ...will not be shown with the Meter results.\n   ** Warning ** Meter:Custom=\"OTHERFUELS:FACILITY\", invalid Output Variable or Meter Name=\"INTERIOREQUIPMENT:STEAM\".\n   **   ~~~   ** ...will not be shown with the Meter results.\n   ** Warning ** Meter:Custom=\"OTHERFUELS:FACILITY\", no items assigned \n   **   ~~~   ** ...will not be shown with the Meter results. This may be caused by a Meter:Custom be assigned to another Meter:Custom.\n   ** Warning ** Output:Meter: invalid Key Name=\"EXTERIORLIGHTING:ELECTRICITY\" - not found.\n   ** Warning ** Output:Meter: invalid Key Name=\"GAS:FACILITY\" - not found.\n   ** Warning ** Output:Meter: invalid Key Name=\"EXTERIORLIGHTING:ELECTRICITY\" - not found.\n   ** Warning ** Output:Meter: invalid Key Name=\"GAS:FACILITY\" - not found.\n   ** Warning ** Output:Meter: invalid Key Name=\"HEATING:FUELOILNO2\" - not found.\n   ** Warning ** Output:Meter: invalid Key Name=\"HEATING:PROPANE\" - not found.\n   ** Warning ** Output:Meter: invalid Key Name=\"HEATING:DISTRICTCOOLING\" - not found.\n   ** Warning ** Output:Meter: invalid Key Name=\"HEATING:DISTRICTHEATING\" - not found.\n   ** Warning ** Output:Meter: invalid Key Name=\"HEATING:WATER\" - not found.\n   ** Warning ** Output:Meter: invalid Key Name=\"COOLING:NATURALGAS\" - not found.\n   ** Warning ** Output:Meter: invalid Key Name=\"COOLING:FUELOILNO2\" - not found.\n   ** Warning ** Output:Meter: invalid Key Name=\"COOLING:PROPANE\" - not found.\n   ** Warning ** Output:Meter: invalid Key Name=\"COOLING:DISTRICTCOOLING\" - not found.\n   ** Warning ** Output:Meter: invalid Key Name=\"COOLING:DISTRICTHEATING\" - not found.\n   ** Warning ** Output:Meter: invalid Key Name=\"COOLING:WATER\" - not found.\n   ** Warning ** Output:Meter: invalid Key Name=\"INTERIORLIGHTS:NATURALGAS\" - not found.\n   ** Warning ** Output:Meter: invalid Key Name=\"INTERIORLIGHTS:FUELOILNO2\" - not found.\n   ** Warning ** Output:Meter: invalid Key Name=\"INTERIORLIGHTS:PROPANE\" - not found.\n   ** Warning ** Output:Meter: invalid Key Name=\"INTERIORLIGHTS:DISTRICTCOOLING\" - not found.\n   ** Warning ** Output:Meter: invalid Key Name=\"INTERIORLIGHTS:DISTRICTHEATING\" - not found.\n   ** Warning ** Output:Meter: invalid Key Name=\"INTERIORLIGHTS:WATER\" - not found.\n   ** Warning ** Output:Meter: invalid Key Name=\"EXTERIORLIGHTS:NATURALGAS\" - not found.\n   ** Warning ** Output:Meter: invalid Key Name=\"EXTERIORLIGHTS:FUELOILNO2\" - not found.\n   ** Warning ** Output:Meter: invalid Key Name=\"EXTERIORLIGHTS:PROPANE\" - not found.\n   ** Warning ** Output:Meter: invalid Key Name=\"EXTERIORLIGHTS:DISTRICTCOOLING\" - not found.\n   ** Warning ** Output:Meter: invalid Key Name=\"EXTERIORLIGHTS:DISTRICTHEATING\" - not found.\n   ** Warning ** Output:Meter: invalid Key Name=\"EXTERIORLIGHTS:WATER\" - not found.\n   ** Warning ** Output:Meter: invalid Key Name=\"INTERIOREQUIPMENT:FUELOILNO2\" - not found.\n   ** Warning ** Output:Meter: invalid Key Name=\"INTERIOREQUIPMENT:PROPANE\" - not found.\n   ** Warning ** Output:Meter: invalid Key Name=\"INTERIOREQUIPMENT:DISTRICTCOOLING\" - not found.\n   ** Warning ** Output:Meter: invalid Key Name=\"INTERIOREQUIPMENT:DISTRICTHEATING\" - not found.\n   ** Warning ** Output:Meter: invalid Key Name=\"INTERIOREQUIPMENT:WATER\" - not found.\n   ** Warning ** Output:Meter: invalid Key Name=\"EXTERIOREQUIPMENT:ELECTRICITY\" - not found.\n   ** Warning ** Output:Meter: invalid Key Name=\"EXTERIOREQUIPMENT:NATURALGAS\" - not found.\n   ** Warning ** Output:Meter: invalid Key Name=\"EXTERIOREQUIPMENT:FUELOILNO2\" - not found.\n   ** Warning ** Output:Meter: invalid Key Name=\"EXTERIOREQUIPMENT:PROPANE\" - not found.\n   ** Warning ** Output:Meter: invalid Key Name=\"EXTERIOREQUIPMENT:DISTRICTCOOLING\" - not found.\n   ** Warning ** Output:Meter: invalid Key Name=\"EXTERIOREQUIPMENT:DISTRICTHEATING\" - not found.\n   ** Warning ** Output:Meter: invalid Key Name=\"EXTERIOREQUIPMENT:WATER\" - not found.\n   ** Warning ** Output:Meter: invalid Key Name=\"FANS:NATURALGAS\" - not found.\n   ** Warning ** Output:Meter: invalid Key Name=\"FANS:FUELOILNO2\" - not found.\n   ** Warning ** Output:Meter: invalid Key Name=\"FANS:PROPANE\" - not found.\n   ** Warning ** Output:Meter: invalid Key Name=\"FANS:DISTRICTCOOLING\" - not found.\n   ** Warning ** Output:Meter: invalid Key Name=\"FANS:DISTRICTHEATING\" - not found.\n   ** Warning ** Output:Meter: invalid Key Name=\"FANS:WATER\" - not found.\n   ** Warning ** Output:Meter: invalid Key Name=\"PUMPS:NATURALGAS\" - not found.\n   ** Warning ** Output:Meter: invalid Key Name=\"PUMPS:FUELOILNO2\" - not found.\n   ** Warning ** Output:Meter: invalid Key Name=\"PUMPS:PROPANE\" - not found.\n   ** Warning ** Output:Meter: invalid Key Name=\"PUMPS:DISTRICTCOOLING\" - not found.\n   ** Warning ** Output:Meter: invalid Key Name=\"PUMPS:DISTRICTHEATING\" - not found.\n   ** Warning ** Output:Meter: invalid Key Name=\"PUMPS:WATER\" - not found.\n   ** Warning ** Output:Meter: invalid Key Name=\"HEATREJECTION:ELECTRICITY\" - not found.\n   ** Warning ** Output:Meter: invalid Key Name=\"HEATREJECTION:NATURALGAS\" - not found.\n   ** Warning ** Output:Meter: invalid Key Name=\"HEATREJECTION:FUELOILNO2\" - not found.\n   ** Warning ** Output:Meter: invalid Key Name=\"HEATREJECTION:PROPANE\" - not found.\n   ** Warning ** Output:Meter: invalid Key Name=\"HEATREJECTION:DISTRICTCOOLING\" - not found.\n   ** Warning ** Output:Meter: invalid Key Name=\"HEATREJECTION:DISTRICTHEATING\" - not found.\n   ** Warning ** Output:Meter: invalid Key Name=\"HEATREJECTION:WATER\" - not found.\n   ** Warning ** Output:Meter: invalid Key Name=\"HUMIDIFIER:ELECTRICITY\" - not found.\n   ** Warning ** Output:Meter: invalid Key Name=\"HUMIDIFIER:NATURALGAS\" - not found.\n   ** Warning ** Output:Meter: invalid Key Name=\"HUMIDIFIER:FUELOILNO2\" - not found.\n   ** Warning ** Output:Meter: invalid Key Name=\"HUMIDIFIER:PROPANE\" - not found.\n   ** Warning ** Output:Meter: invalid Key Name=\"HUMIDIFIER:DISTRICTCOOLING\" - not found.\n   ** Warning ** Output:Meter: invalid Key Name=\"HUMIDIFIER:DISTRICTHEATING\" - not found.\n   ** Warning ** Output:Meter: invalid Key Name=\"HUMIDIFIER:WATER\" - not found.\n   ** Warning ** Output:Meter: invalid Key Name=\"HEATRECOVERY:NATURALGAS\" - not found.\n   ** Warning ** Output:Meter: invalid Key Name=\"HEATRECOVERY:FUELOILNO2\" - not found.\n   ** Warning ** Output:Meter: invalid Key Name=\"HEATRECOVERY:PROPANE\" - not found.\n   ** Warning ** Output:Meter: invalid Key Name=\"HEATRECOVERY:DISTRICTCOOLING\" - not found.\n   ** Warning ** Output:Meter: invalid Key Name=\"HEATRECOVERY:DISTRICTHEATING\" - not found.\n   ** Warning ** Output:Meter: invalid Key Name=\"HEATRECOVERY:WATER\" - not found.\n   ** Warning ** Output:Meter: invalid Key Name=\"WATERSYSTEMS:FUELOILNO2\" - not found.\n   ** Warning ** Output:Meter: invalid Key Name=\"WATERSYSTEMS:PROPANE\" - not found.\n   ** Warning ** Output:Meter: invalid Key Name=\"WATERSYSTEMS:DISTRICTCOOLING\" - not found.\n   ** Warning ** Output:Meter: invalid Key Name=\"WATERSYSTEMS:DISTRICTHEATING\" - not found.\n   ** Warning ** Output:Meter: invalid Key Name=\"REFRIGERATION:ELECTRICITY\" - not found.\n   ** Warning ** Output:Meter: invalid Key Name=\"REFRIGERATION:NATURALGAS\" - not found.\n   ** Warning ** Output:Meter: invalid Key Name=\"REFRIGERATION:FUELOILNO2\" - not found.\n   ** Warning ** Output:Meter: invalid Key Name=\"REFRIGERATION:PROPANE\" - not found.\n   ** Warning ** Output:Meter: invalid Key Name=\"REFRIGERATION:DISTRICTCOOLING\" - not found.\n   ** Warning ** Output:Meter: invalid Key Name=\"REFRIGERATION:DISTRICTHEATING\" - not found.\n   ** Warning ** Output:Meter: invalid Key Name=\"REFRIGERATION:WATER\" - not found.\n   ** Warning ** Output:Meter: invalid Key Name=\"GENERATORS:ELECTRICITY\" - not found.\n   ** Warning ** Output:Meter: invalid Key Name=\"GENERATORS:NATURALGAS\" - not found.\n   ** Warning ** Output:Meter: invalid Key Name=\"GENERATORS:FUELOILNO2\" - not found.\n   ** Warning ** Output:Meter: invalid Key Name=\"GENERATORS:PROPANE\" - not found.\n   ** Warning ** Output:Meter: invalid Key Name=\"GENERATORS:DISTRICTCOOLING\" - not found.\n   ** Warning ** Output:Meter: invalid Key Name=\"GENERATORS:DISTRICTHEATING\" - not found.\n   ** Warning ** Output:Meter: invalid Key Name=\"GENERATORS:WATER\" - not found.\n   ** Warning ** Output:Meter: invalid Key Name=\"FUELOILNO2:FACILITY\" - not found.\n   ** Warning ** Output:Meter: invalid Key Name=\"PROPANE:FACILITY\" - not found.\n   ** Warning ** Output:Meter: invalid Key Name=\"DISTRICTCOOLING:FACILITY\" - not found.\n   ** Warning ** Output:Meter: invalid Key Name=\"DISTRICTHEATING:FACILITY\" - not found.\n   ** Warning ** Output:Meter: invalid Key Name=\"HEATREJECTION:FUELOIL#1\" - not found.\n   ** Warning ** Output:Meter: invalid Key Name=\"HEATREJECTION:DIESEL\" - not found.\n   ** Warning ** Output:Meter: invalid Key Name=\"HEATREJECTION:GASOLINE\" - not found.\n   ** Warning ** Output:Meter: invalid Key Name=\"HEATREJECTION:COAL\" - not found.\n   ** Warning ** Output:Meter: invalid Key Name=\"HEATREJECTION:STEAM\" - not found.\n   ** Warning ** Output:Meter: invalid Key Name=\"HEATREJECTION:OTHERFUELS\" - not found.\n   ** Warning ** Output:Meter: invalid Key Name=\"HEATING:FUELOIL#1\" - not found.\n   ** Warning ** Output:Meter: invalid Key Name=\"HEATING:DIESEL\" - not found.\n   ** Warning ** Output:Meter: invalid Key Name=\"HEATING:GASOLINE\" - not found.\n   ** Warning ** Output:Meter: invalid Key Name=\"HEATING:COAL\" - not found.\n   ** Warning ** Output:Meter: invalid Key Name=\"HEATING:STEAM\" - not found.\n   ** Warning ** Output:Meter: invalid Key Name=\"HEATING:OTHERFUELS\" - not found.\n   ** Warning ** Output:Meter: invalid Key Name=\"WATERSYSTEMS:FUELOIL#1\" - not found.\n   ** Warning ** Output:Meter: invalid Key Name=\"WATERSYSTEMS:DIESEL\" - not found.\n   ** Warning ** Output:Meter: invalid Key Name=\"WATERSYSTEMS:GASOLINE\" - not found.\n   ** Warning ** Output:Meter: invalid Key Name=\"WATERSYSTEMS:COAL\" - not found.\n   ** Warning ** Output:Meter: invalid Key Name=\"WATERSYSTEMS:STEAM\" - not found.\n   ** Warning ** Output:Meter: invalid Key Name=\"WATERSYSTEMS:OTHERFUELS\" - not found.\n   ** Warning ** Output:Meter: invalid Key Name=\"INTERIOREQUIPMENT:FUELOIL#1\" - not found.\n   ** Warning ** Output:Meter: invalid Key Name=\"INTERIOREQUIPMENT:DIESEL\" - not found.\n   ** Warning ** Output:Meter: invalid Key Name=\"INTERIOREQUIPMENT:GASOLINE\" - not found.\n   ** Warning ** Output:Meter: invalid Key Name=\"INTERIOREQUIPMENT:COAL\" - not found.\n   ** Warning ** Output:Meter: invalid Key Name=\"INTERIOREQUIPMENT:STEAM\" - not found.\n   ** Warning ** Output:Meter: invalid Key Name=\"INTERIOREQUIPMENT:OTHERFUELS\" - not found.\n   ** Warning ** Output:Meter: invalid Key Name=\"OTHERFUELS:FACILITY\" - not found.\n   ** Warning ** Output:Meter:MeterFileOnly requested for \"Electricity:Facility\" (TimeStep), already on \"Output:Meter\". Will report to both eplusout.eso and eplusout.mtr\n   ** Warning ** Output:Meter:MeterFileOnly: invalid Key Name=\"ELECTRICITYPRODUCED:FACILITY\" - not found.\n   ** Warning ** Output:Meter:MeterFileOnly: invalid Key Name=\"GAS:FACILITY\" - not found.\n   ** Warning ** Output:Meter:MeterFileOnly: invalid Key Name=\"DISTRICTCOOLING:FACILITY\" - not found.\n   ** Warning ** Output:Meter:MeterFileOnly: invalid Key Name=\"DISTRICTHEATING:FACILITY\" - not found.\n   ************* Testing Individual Branch Integrity\n   ************* All Branches passed integrity testing\n   ************* Testing Individual Supply Air Path Integrity\n   ************* All Supply Air Paths passed integrity testing\n   ************* Testing Individual Return Air Path Integrity\n   ************* All Return Air Paths passed integrity testing\n   ************* No node connection errors were found.\n   ** Warning ** More than 4% of time (1.0 hours) uncomfortable in one or more zones \n   **   ~~~   ** Based on ASHRAE 55-2004 graph (Section 5.2.1.1)\n   **   ~~~   ** During SizingPeriod Environment [01/21 - 01/21]: BUFFALO NIAGARA INTL AP ANN HTG 99.6% CONDNS DB 1 HVAC Sizing Pass 1\n   **   ~~~   ** 26.0 hours were uncomfortable in zone: BUILDING STORY 1 THERMALZONE\n   **   ~~~   ** 30.0 hours were uncomfortable in zone: BUILDING STORY 1 THERMALZONE 1\n   **   ~~~   ** 26.0 hours were uncomfortable in zone: BUILDING STORY 1 THERMALZONE 2\n   **   ~~~   ** 29.0 hours were uncomfortable in zone: BUILDING STORY 1 THERMALZONE 3\n   **   ~~~   ** 26.0 hours were uncomfortable in zone: BUILDING STORY 1 THERMALZONE 4\n   ** Warning ** SizePlantLoop: Calculated Plant Sizing Design Volume Flow Rate=[0.00] is too small. Set to 0.0\n   **   ~~~   ** ..occurs for PlantLoop=HOT WATER LOOP\n   ** Warning ** SizePump: Calculated Pump Nominal Volume Flow Rate=[0.00] is too small. Set to 0.0\n   **   ~~~   ** ..occurs for Pump=HOT WATER LOOP PUMP\n   ************* Beginning Simulation\n   ** Warning ** HeatExchanger:AirToAir:SensibleAndLatent \"BUILDING STORY 1 THERMALZONE 1 PSZ-AC ERV\"\n   **   ~~~   ** Average air volume flow rate is <50% or >130% of the nominal HX supply air volume flow rate.\n   **   ~~~   ** Air volume flow rate ratio = 4.708. Environment=RUN PERIOD 1, at Simulation time=01/01 06:30 - 07:00\n   ** Warning ** HeatExchanger:AirToAir:SensibleAndLatent \"BUILDING STORY 1 THERMALZONE 3 PSZ-AC ERV\"\n   **   ~~~   ** Average air volume flow rate is <50% or >130% of the nominal HX supply air volume flow rate.\n   **   ~~~   ** Air volume flow rate ratio = 5.091. Environment=RUN PERIOD 1, at Simulation time=01/01 06:30 - 07:00\n   ** Warning ** CalcDoe2DXCoil: Coil:Cooling:DX:SingleSpeed \"BUILDING STORY 1 THERMALZONE PSZ-AC 1SPD DX AC CLG COIL 856KBTU/HR 9.5EER\" - Air-cooled condenser inlet dry-bulb temperature below 0 C. Outdoor dry-bulb temperature = -0.60\n   **   ~~~   **  ... Occurrence info = RUN PERIOD 1, 01/01 19:00 - 20:00\n   **   ~~~   ** ... Operation at low ambient temperatures may require special performance curves.\n   ** Warning ** HeatExchanger:AirToAir:SensibleAndLatent \"BUILDING STORY 1 THERMALZONE 2 PSZ-AC ERV\"\n   **   ~~~   ** Average air volume flow rate is <50% or >130% of the nominal HX supply air volume flow rate.\n   **   ~~~   ** Air volume flow rate ratio = 3.211. Environment=RUN PERIOD 1, at Simulation time=01/02 06:00 - 07:00\n   ** Warning ** HeatExchanger:AirToAir:SensibleAndLatent \"BUILDING STORY 1 THERMALZONE 4 PSZ-AC ERV\"\n   **   ~~~   ** Average air volume flow rate is <50% or >130% of the nominal HX supply air volume flow rate.\n   **   ~~~   ** Air volume flow rate ratio = 3.961. Environment=RUN PERIOD 1, at Simulation time=01/02 06:00 - 07:00\n   ** Warning ** SimHVAC: Maximum iterations (20) exceeded for all HVAC loops, at RUN PERIOD 1, 01/02 06:30 - 07:00\n   **   ~~~   ** The solution for one or more of the Air Loop HVAC systems did not appear to converge\n   **   ~~~   ** ...use Output:Diagnostics,DisplayExtraWarnings; to show more details on each max iteration exceeded.\n   ** Warning ** CalcDoe2DXCoil: Coil:Cooling:DX:SingleSpeed \"BUILDING STORY 1 THERMALZONE 1 PSZ-AC 1SPD DX AC CLG COIL 169KBTU/HR 10.8EER\" - Air-cooled condenser inlet dry-bulb temperature below 0 C. Outdoor dry-bulb temperature = -0.60\n   **   ~~~   **  ... Occurrence info = RUN PERIOD 1, 01/02 18:30 - 19:00\n   **   ~~~   ** ... Operation at low ambient temperatures may require special performance curves.\n   ** Warning ** CalcDoe2DXCoil: Coil:Cooling:DX:SingleSpeed \"BUILDING STORY 1 THERMALZONE 2 PSZ-AC 1SPD DX AC CLG COIL 60KBTU/HR 14.0SEER\" - Air-cooled condenser inlet dry-bulb temperature below 0 C. Outdoor dry-bulb temperature = -0.60\n   **   ~~~   **  ... Occurrence info = RUN PERIOD 1, 01/02 18:30 - 19:00\n   **   ~~~   ** ... Operation at low ambient temperatures may require special performance curves.\n   ** Warning ** CalcDoe2DXCoil: Coil:Cooling:DX:SingleSpeed \"BUILDING STORY 1 THERMALZONE 3 PSZ-AC 1SPD DX AC CLG COIL 153KBTU/HR 10.8EER\" - Air-cooled condenser inlet dry-bulb temperature below 0 C. Outdoor dry-bulb temperature = -0.60\n   **   ~~~   **  ... Occurrence info = RUN PERIOD 1, 01/02 18:30 - 19:00\n   **   ~~~   ** ... Operation at low ambient temperatures may require special performance curves.\n   ** Warning ** CalcDoe2DXCoil: Coil:Cooling:DX:SingleSpeed \"BUILDING STORY 1 THERMALZONE 4 PSZ-AC 1SPD DX AC CLG COIL 71KBTU/HR 11.0EER\" - Air-cooled condenser inlet dry-bulb temperature below 0 C. Outdoor dry-bulb temperature = -0.60\n   **   ~~~   **  ... Occurrence info = RUN PERIOD 1, 01/02 18:30 - 19:00\n   **   ~~~   ** ... Operation at low ambient temperatures may require special performance curves.\n   ** Warning ** CalcDoe2DXCoil: Coil:Cooling:DX:SingleSpeed \"BUILDING STORY 1 THERMALZONE PSZ-AC 1SPD DX AC CLG COIL 856KBTU/HR 9.5EER\" - Full load outlet air dry-bulb temperature < 2C. This indicates the possibility of coil frost/freeze. Outlet temperature = 1.66 C.\n   **   ~~~   **  ...Occurrence info = RUN PERIOD 1, 01/03 17:30 - 18:00\n   **   ~~~   ** ... Possible reasons for low outlet air dry-bulb temperatures are: This DX coil\n   **   ~~~   **    1) may have a low inlet air dry-bulb temperature. Inlet air temperature = 16.627 C.\n   **   ~~~   **    2) may have a low air flow rate per watt of cooling capacity. Check inputs.\n   **   ~~~   **    3) is used as part of a HX assisted cooling coil which uses a high sensible effectiveness. Check inputs.\n   ** Warning ** SimHVAC: Maximum iterations (20) exceeded for all HVAC loops, at RUN PERIOD 1, 01/07 06:40 - 07:00\n   **   ~~~   ** The solution for one or more of the Air Loop HVAC systems did not appear to converge\n   ** Warning ** CalcDoe2DXCoil: Coil:Cooling:DX:SingleSpeed \"BUILDING STORY 1 THERMALZONE 4 PSZ-AC 1SPD DX AC CLG COIL 71KBTU/HR 11.0EER\" - Full load outlet air dry-bulb temperature < 2C. This indicates the possibility of coil frost/freeze. Outlet temperature = 1.32 C.\n   **   ~~~   **  ...Occurrence info = RUN PERIOD 1, 01/12 10:30 - 11:00\n   **   ~~~   ** ... Possible reasons for low outlet air dry-bulb temperatures are: This DX coil\n   **   ~~~   **    1) may have a low inlet air dry-bulb temperature. Inlet air temperature = 17.682 C.\n   **   ~~~   **    2) may have a low air flow rate per watt of cooling capacity. Check inputs.\n   **   ~~~   **    3) is used as part of a HX assisted cooling coil which uses a high sensible effectiveness. Check inputs.\n   ** Warning ** SimHVAC: Maximum iterations (20) exceeded for all HVAC loops, at RUN PERIOD 1, 01/16 06:30 - 07:00\n   **   ~~~   ** The solution for one or more of the Air Loop HVAC systems did not appear to converge\n   ** Warning ** SimHVAC: Maximum iterations (20) exceeded for all HVAC loops, at RUN PERIOD 1, 01/18 04:00 - 04:30\n   **   ~~~   ** The solution for one or more of the Air Loop HVAC systems did not appear to converge\n   ** Warning ** SimHVAC: Maximum iterations (20) exceeded for all HVAC loops, at RUN PERIOD 1, 01/18 04:30 - 05:00\n   **   ~~~   ** The solution for one or more of the Air Loop HVAC systems did not appear to converge\n   ** Warning ** HeatExchanger:AirToAir:SensibleAndLatent \"BUILDING STORY 1 THERMALZONE PSZ-AC ERV\"\n   **   ~~~   ** Average air volume flow rate is <50% or >130% of the nominal HX supply air volume flow rate.\n   **   ~~~   ** Air volume flow rate ratio = 2.492. Environment=RUN PERIOD 1, at Simulation time=01/19 06:20 - 06:40\n   ** Warning ** SimHVAC: Maximum iterations (20) exceeded for all HVAC loops, at RUN PERIOD 1, 01/19 06:20 - 06:40\n   **   ~~~   ** The solution for one or more of the Air Loop HVAC systems did not appear to converge\n   ** Warning ** SimHVAC: Maximum iterations (20) exceeded for all HVAC loops, at RUN PERIOD 1, 02/02 06:30 - 07:00\n   **   ~~~   ** The solution for one or more of the Air Loop HVAC systems did not appear to converge\n   ** Warning ** SimHVAC: Maximum iterations (20) exceeded for all HVAC loops, at RUN PERIOD 1, 02/18 06:30 - 07:00\n   **   ~~~   ** The solution for one or more of the Air Loop HVAC systems did not appear to converge\n   ** Warning ** SimHVAC: Maximum iterations (20) exceeded for all HVAC loops, at RUN PERIOD 1, 02/19 06:00 - 06:30\n   **   ~~~   ** The solution for one or more of the Air Loop HVAC systems did not appear to converge\n   ** Warning ** SimHVAC: Maximum iterations (20) exceeded for all HVAC loops, at RUN PERIOD 1, 02/19 06:30 - 07:00\n   **   ~~~   ** The solution for one or more of the Air Loop HVAC systems did not appear to converge\n   ** Warning ** SimHVAC: Maximum iterations (20) exceeded for all HVAC loops, at RUN PERIOD 1, 02/22 18:00 - 19:00\n   **   ~~~   ** The solution for one or more of the Air Loop HVAC systems did not appear to converge\n   ** Warning ** SimHVAC: Maximum iterations (20) exceeded for all HVAC loops, at RUN PERIOD 1, 02/23 04:30 - 05:00\n   **   ~~~   ** The solution for one or more of the Air Loop HVAC systems did not appear to converge\n   ** Warning ** SimHVAC: Maximum iterations (20) exceeded for all HVAC loops, at RUN PERIOD 1, 02/28 11:00 - 12:00\n   **   ~~~   ** The solution for one or more of the Air Loop HVAC systems did not appear to converge\n   ** Warning ** SimHVAC: Maximum iterations (20) exceeded for all HVAC loops, at RUN PERIOD 1, 02/28 11:20 - 11:40\n   **   ~~~   ** The solution for one or more of the Air Loop HVAC systems did not appear to converge\n   ** Warning ** CalcDoe2DXCoil: Coil:Cooling:DX:SingleSpeed \"BUILDING STORY 1 THERMALZONE 2 PSZ-AC 1SPD DX AC CLG COIL 60KBTU/HR 14.0SEER\" - Full load outlet air dry-bulb temperature < 2C. This indicates the possibility of coil frost/freeze. Outlet temperature = 1.65 C.\n   **   ~~~   **  ...Occurrence info = RUN PERIOD 1, 04/07 12:00 - 13:00\n   **   ~~~   ** ... Possible reasons for low outlet air dry-bulb temperatures are: This DX coil\n   **   ~~~   **    1) may have a low inlet air dry-bulb temperature. Inlet air temperature = 20.000 C.\n   **   ~~~   **    2) may have a low air flow rate per watt of cooling capacity. Check inputs.\n   **   ~~~   **    3) is used as part of a HX assisted cooling coil which uses a high sensible effectiveness. Check inputs.\n   ** Warning ** CalcDoe2DXCoil: Coil:Cooling:DX:SingleSpeed \"BUILDING STORY 1 THERMALZONE 1 PSZ-AC 1SPD DX AC CLG COIL 169KBTU/HR 10.8EER\" - Full load outlet air dry-bulb temperature < 2C. This indicates the possibility of coil frost/freeze. Outlet temperature = 1.59 C.\n   **   ~~~   **  ...Occurrence info = RUN PERIOD 1, 05/27 18:00 - 19:00\n   **   ~~~   ** ... Possible reasons for low outlet air dry-bulb temperatures are: This DX coil\n   **   ~~~   **    1) may have a low inlet air dry-bulb temperature. Inlet air temperature = 18.300 C.\n   **   ~~~   **    2) may have a low air flow rate per watt of cooling capacity. Check inputs.\n   **   ~~~   **    3) is used as part of a HX assisted cooling coil which uses a high sensible effectiveness. Check inputs.\n   ** Warning ** More than 4% of time (350.4 hours) uncomfortable in one or more zones \n   **   ~~~   ** Based on ASHRAE 55-2004 graph (Section 5.2.1.1)\n   **   ~~~   ** During Environment [01/01/2017 - 12/31/2017]: RUN PERIOD 1\n   **   ~~~   ** 1051.0 hours were uncomfortable in zone: BUILDING STORY 1 THERMALZONE\n   **   ~~~   ** 1566.0 hours were uncomfortable in zone: BUILDING STORY 1 THERMALZONE 1\n   **   ~~~   ** 1838.0 hours were uncomfortable in zone: BUILDING STORY 1 THERMALZONE 2\n   **   ~~~   ** 1702.0 hours were uncomfortable in zone: BUILDING STORY 1 THERMALZONE 3\n   **   ~~~   ** 1497.0 hours were uncomfortable in zone: BUILDING STORY 1 THERMALZONE 4\n   ** Warning ** The resource referenced by LifeCycleCost:UsePriceEscalation= \"U.S. AVG  COMMERCIAL-ELECTRICITY\" has no energy cost. \n   **   ~~~   ** ... It is likely that the wrong resource is used. The resource should match the meter used in Utility:Tariff.\n   ** Warning ** The resource referenced by LifeCycleCost:UsePriceEscalation= \"U.S. AVG  COMMERCIAL-DISTILLATE OIL\" has no energy cost. \n   **   ~~~   ** ... It is likely that the wrong resource is used. The resource should match the meter used in Utility:Tariff.\n   ** Warning ** The resource referenced by LifeCycleCost:UsePriceEscalation= \"U.S. AVG  COMMERCIAL-RESIDUAL OIL\" has no energy cost. \n   **   ~~~   ** ... It is likely that the wrong resource is used. The resource should match the meter used in Utility:Tariff.\n   ** Warning ** The resource referenced by LifeCycleCost:UsePriceEscalation= \"U.S. AVG  COMMERCIAL-NATURAL GAS\" has no energy cost. \n   **   ~~~   ** ... It is likely that the wrong resource is used. The resource should match the meter used in Utility:Tariff.\n   ** Warning ** The resource referenced by LifeCycleCost:UsePriceEscalation= \"U.S. AVG  COMMERCIAL-COAL\" has no energy cost. \n   **   ~~~   ** ... It is likely that the wrong resource is used. The resource should match the meter used in Utility:Tariff.\n   ************* Simulation Error Summary *************\n   ** Warning ** The following Report Variables were requested but not generated -- check.rdd file\n   **   ~~~   ** Either the IDF did not contain these elements, the variable name is misspelled,\n   **   ~~~   ** or the requested variable is an advanced output which requires Output : Diagnostics, DisplayAdvancedReportVariables;\n   ************* Key=*, VarName=FANGERPMV, Frequency=TimeStep\n   ************* Key=*, VarName=FANGERPPD, Frequency=TimeStep\n   ************* Key=*, VarName=TIME NOT COMFORTABLE SUMMER CLOTHES, Frequency=TimeStep\n   ************* Key=*, VarName=TIME NOT COMFORTABLE WINTER CLOTHES, Frequency=TimeStep\n   ************* Key=*, VarName=TIME NOT COMFORTABLE SUMMER OR WINTER CLOTHES, Frequency=TimeStep\n   ************* Key=*, VarName=DISTRICT COOLING CHILLED WATER RATE, Frequency=TimeStep\n   ************* Key=*, VarName=DISTRICT COOLING MASS FLOW RATE, Frequency=TimeStep\n   ************* Key=*, VarName=DISTRICT COOLING INLET TEMPERATURE, Frequency=TimeStep\n   ************* Key=*, VarName=DISTRICT COOLING OUTLET TEMPERATURE, Frequency=TimeStep\n   ************* Key=*, VarName=DISTRICT HEATING HOT WATER RATE, Frequency=TimeStep\n   ************* Key=*, VarName=DISTRICT HEATING MASS FLOW RATE, Frequency=TimeStep\n   ************* Key=*, VarName=DISTRICT HEATING INLET TEMPERATURE, Frequency=TimeStep\n   ************* Key=*, VarName=DISTRICT HEATING OUTLET TEMPERATURE, Frequency=TimeStep\n   ************* Key=*, VarName=EXTERIOREQUIPMENT:ELECTRICITY, Frequency=TimeStep\n   ************* Key=*, VarName=ICE THERMAL STORAGE END FRACTION, Frequency=TimeStep\n   ************* Key=*, VarName=COOLING COIL ICE THERMAL STORAGE END FRACTION, Frequency=TimeStep\n   ************* There are 8 unused schedules in input.\n   ************* There are 8 unused week schedules in input.\n   ************* There are 34 unused day schedules in input.\n   ************* Use Output:Diagnostics,DisplayUnusedSchedules; to see them.\n   *************\n   ************* ===== Recurring Error Summary =====\n   ************* The following recurring error messages occurred.\n   *************\n   *************  ** Warning ** HeatExchanger:AirToAir:SensibleAndLatent \"BUILDING STORY 1 THERMALZONE 1 PSZ-AC ERV\":  Average air volume flow rate is <50% or >130% warning continues. Air flow rate ratio statistics follow.\n   *************  **   ~~~   **   This error occurred 2093 total times;\n   *************  **   ~~~   **   during Warmup 0 times;\n   *************  **   ~~~   **   during Sizing 0 times.\n   *************  **   ~~~   **   Max=4.800482  Min=1.684940E-003\n   *************\n   *************  ** Warning ** HeatExchanger:AirToAir:SensibleAndLatent \"BUILDING STORY 1 THERMALZONE 3 PSZ-AC ERV\":  Average air volume flow rate is <50% or >130% warning continues. Air flow rate ratio statistics follow.\n   *************  **   ~~~   **   This error occurred 2318 total times;\n   *************  **   ~~~   **   during Warmup 0 times;\n   *************  **   ~~~   **   during Sizing 0 times.\n   *************  **   ~~~   **   Max=5.191105  Min=1.931233E-003\n   *************\n   *************  ** Warning ** CalcDoe2DXCoil: Coil:Cooling:DX:SingleSpeed=\"BUILDING STORY 1 THERMALZONE PSZ-AC 1SPD DX AC CLG COIL 856KBTU/HR 9.5EER\" - Low condenser dry-bulb temperature error continues...\n   *************  **   ~~~   **   This error occurred 666 total times;\n   *************  **   ~~~   **   during Warmup 0 times;\n   *************  **   ~~~   **   during Sizing 0 times.\n   *************  **   ~~~   **   Max=-0.6 [C]  Min=-13.9 [C]\n   *************\n   *************  ** Warning ** HeatExchanger:AirToAir:SensibleAndLatent \"BUILDING STORY 1 THERMALZONE 2 PSZ-AC ERV\":  Average air volume flow rate is <50% or >130% warning continues. Air flow rate ratio statistics follow.\n   *************  **   ~~~   **   This error occurred 1337 total times;\n   *************  **   ~~~   **   during Warmup 0 times;\n   *************  **   ~~~   **   during Sizing 0 times.\n   *************  **   ~~~   **   Max=3.274396  Min=3.629308E-003\n   *************\n   *************  ** Warning ** HeatExchanger:AirToAir:SensibleAndLatent \"BUILDING STORY 1 THERMALZONE 4 PSZ-AC ERV\":  Average air volume flow rate is <50% or >130% warning continues. Air flow rate ratio statistics follow.\n   *************  **   ~~~   **   This error occurred 2036 total times;\n   *************  **   ~~~   **   during Warmup 0 times;\n   *************  **   ~~~   **   during Sizing 0 times.\n   *************  **   ~~~   **   Max=4.039002  Min=3.639594E-003\n   *************\n   *************  ** Warning ** CalcDoe2DXCoil: Coil:Cooling:DX:SingleSpeed=\"BUILDING STORY 1 THERMALZONE 1 PSZ-AC 1SPD DX AC CLG COIL 169KBTU/HR 10.8EER\" - Low condenser dry-bulb temperature error continues...\n   *************  **   ~~~   **   This error occurred 184 total times;\n   *************  **   ~~~   **   during Warmup 0 times;\n   *************  **   ~~~   **   during Sizing 0 times.\n   *************  **   ~~~   **   Max=-0.6 [C]  Min=-10. [C]\n   *************\n   *************  ** Warning ** CalcDoe2DXCoil: Coil:Cooling:DX:SingleSpeed=\"BUILDING STORY 1 THERMALZONE 2 PSZ-AC 1SPD DX AC CLG COIL 60KBTU/HR 14.0SEER\" - Low condenser dry-bulb temperature error continues...\n   *************  **   ~~~   **   This error occurred 46 total times;\n   *************  **   ~~~   **   during Warmup 0 times;\n   *************  **   ~~~   **   during Sizing 0 times.\n   *************  **   ~~~   **   Max=-0.6 [C]  Min=-4.4 [C]\n   *************\n   *************  ** Warning ** CalcDoe2DXCoil: Coil:Cooling:DX:SingleSpeed=\"BUILDING STORY 1 THERMALZONE 3 PSZ-AC 1SPD DX AC CLG COIL 153KBTU/HR 10.8EER\" - Low condenser dry-bulb temperature error continues...\n   *************  **   ~~~   **   This error occurred 95 total times;\n   *************  **   ~~~   **   during Warmup 0 times;\n   *************  **   ~~~   **   during Sizing 0 times.\n   *************  **   ~~~   **   Max=-0.6 [C]  Min=-4.4 [C]\n   *************\n   *************  ** Warning ** CalcDoe2DXCoil: Coil:Cooling:DX:SingleSpeed=\"BUILDING STORY 1 THERMALZONE 4 PSZ-AC 1SPD DX AC CLG COIL 71KBTU/HR 11.0EER\" - Low condenser dry-bulb temperature error continues...\n   *************  **   ~~~   **   This error occurred 369 total times;\n   *************  **   ~~~   **   during Warmup 0 times;\n   *************  **   ~~~   **   during Sizing 0 times.\n   *************  **   ~~~   **   Max=-0.6 [C]  Min=-11.1 [C]\n   *************\n   *************  ** Warning ** CalcDoe2DXCoil: Coil:Cooling:DX:SingleSpeed=\"BUILDING STORY 1 THERMALZONE PSZ-AC 1SPD DX AC CLG COIL 856KBTU/HR 9.5EER\" - Full load outlet temperature indicates a possibility of frost/freeze error continues. Outlet air temperature statistics follow:\n   *************  **   ~~~   **   This error occurred 288 total times;\n   *************  **   ~~~   **   during Warmup 0 times;\n   *************  **   ~~~   **   during Sizing 0 times.\n   *************  **   ~~~   **   Max=1.992588  Min=-1.252101\n   *************\n   *************  ** Warning ** CalcDoe2DXCoil: Coil:Cooling:DX:SingleSpeed=\"BUILDING STORY 1 THERMALZONE 4 PSZ-AC 1SPD DX AC CLG COIL 71KBTU/HR 11.0EER\" - Full load outlet temperature indicates a possibility of frost/freeze error continues. Outlet air temperature statistics follow:\n   *************  **   ~~~   **   This error occurred 21 total times;\n   *************  **   ~~~   **   during Warmup 0 times;\n   *************  **   ~~~   **   during Sizing 0 times.\n   *************  **   ~~~   **   Max=1.989441  Min=0.817061\n   *************\n   *************  ** Warning ** HeatExchanger:AirToAir:SensibleAndLatent \"BUILDING STORY 1 THERMALZONE PSZ-AC ERV\":  Average air volume flow rate is <50% or >130% warning continues. Air flow rate ratio statistics follow.\n   *************  **   ~~~   **   This error occurred 779 total times;\n   *************  **   ~~~   **   during Warmup 0 times;\n   *************  **   ~~~   **   during Sizing 0 times.\n   *************  **   ~~~   **   Max=2.556071  Min=1.450192E-002\n   *************\n   *************  ** Warning ** SimHVAC: Exceeding Maximum iterations for all HVAC loops, during RUN PERIOD 1 continues\n   *************  **   ~~~   **   This error occurred 278 total times;\n   *************  **   ~~~   **   during Warmup 0 times;\n   *************  **   ~~~   **   during Sizing 0 times.\n   *************\n   *************  ** Warning ** CalcDoe2DXCoil: Coil:Cooling:DX:SingleSpeed=\"BUILDING STORY 1 THERMALZONE 2 PSZ-AC 1SPD DX AC CLG COIL 60KBTU/HR 14.0SEER\" - Full load outlet temperature indicates a possibility of frost/freeze error continues. Outlet air temperature statistics follow:\n   *************  **   ~~~   **   This error occurred 12 total times;\n   *************  **   ~~~   **   during Warmup 0 times;\n   *************  **   ~~~   **   during Sizing 0 times.\n   *************  **   ~~~   **   Max=1.948102  Min=0.377447\n   *************\n   *************  ** Warning ** CalcDoe2DXCoil: Coil:Cooling:DX:SingleSpeed=\"BUILDING STORY 1 THERMALZONE 1 PSZ-AC 1SPD DX AC CLG COIL 169KBTU/HR 10.8EER\" - Full load outlet temperature indicates a possibility of frost/freeze error continues. Outlet air temperature statistics follow:\n   *************  **   ~~~   **   This error occurred 4 total times;\n   *************  **   ~~~   **   during Warmup 0 times;\n   *************  **   ~~~   **   during Sizing 0 times.\n   *************  **   ~~~   **   Max=1.591076  Min=1.578054\n   *************\n   *************\n   ************* ===== Final Error Summary =====\n   ************* The following error categories occurred.  Consider correcting or noting.\n   ************* Nominally Unused Constructions\n   ************* ..The nominally unused constructions warning is provided to alert you to potential conditions that can cause\n   ************* ..extra time during simulation. Each construction is calculated by the algorithm indicated in the HeatBalanceAlgorithm\n   ************* ..object. You may remove the constructions indicated (when you use the DisplayExtraWarnings option).\n   *************\n   ************* EnergyPlus Warmup Error Summary. During Warmup: 0 Warning; 0 Severe Errors.\n   ************* EnergyPlus Sizing Error Summary. During Sizing: 16 Warning; 0 Severe Errors.\n   ************* EnergyPlus Completed Successfully-- 10753 Warning; 0 Severe Errors; Elapsed Time=00hr 00min 19.95sec\n",
   "file_paths" :
   [
      "/Users/nmoore/github/bbb/run/baseline_scenario/2/generated_files",
      "/Users/nmoore/github/bbb/mappers/../weather/",
      "/Users/nmoore/.rbenv/versions/2.5.8/lib/ruby/gems/2.5.0/gems/openstudio-calibration-0.3.1/lib/files",
      "/Users/nmoore/.rbenv/versions/2.5.8/lib/ruby/gems/2.5.0/gems/openstudio-common-measures-0.3.2/lib/files",
      "/Users/nmoore/.rbenv/versions/2.5.8/lib/ruby/gems/2.5.0/gems/openstudio-ee-0.3.2/lib/files",
      "/Users/nmoore/.rbenv/versions/2.5.8/lib/ruby/gems/2.5.0/gems/openstudio-extension-0.3.2/lib/files",
      "/Users/nmoore/.rbenv/versions/2.5.8/lib/ruby/gems/2.5.0/gems/openstudio-load-flexibility-measures-0.2.1/lib/files",
      "/Users/nmoore/.rbenv/versions/2.5.8/lib/ruby/gems/2.5.0/gems/openstudio-model-articulation-0.3.1/lib/files",
      "/Users/nmoore/.rbenv/versions/2.5.8/lib/ruby/gems/2.5.0/gems/urbanopt-reopt-0.5.4/lib/files",
      "./files",
      "./weather",
      "../../files",
      "../../weather",
      "./"
   ],
   "hash" : "54D37EEC",
   "measure_paths" :
   [
      "/Users/nmoore/github/bbb/mappers/../measures/",
      "/Users/nmoore/github/bbb/mappers/../resources/hpxml-measures",
      "/Users/nmoore/.rbenv/versions/2.5.8/lib/ruby/gems/2.5.0/gems/openstudio-calibration-0.3.1/lib/measures",
      "/Users/nmoore/.rbenv/versions/2.5.8/lib/ruby/gems/2.5.0/gems/openstudio-common-measures-0.3.2/lib/measures",
      "/Users/nmoore/.rbenv/versions/2.5.8/lib/ruby/gems/2.5.0/gems/openstudio-ee-0.3.2/lib/measures",
      "/Users/nmoore/.rbenv/versions/2.5.8/lib/ruby/gems/2.5.0/gems/openstudio-extension-0.3.2/lib/measures",
      "/Users/nmoore/.rbenv/versions/2.5.8/lib/ruby/gems/2.5.0/gems/openstudio-load-flexibility-measures-0.2.1/lib/measures",
      "/Users/nmoore/.rbenv/versions/2.5.8/lib/ruby/gems/2.5.0/gems/openstudio-model-articulation-0.3.1/lib/measures",
      "/Users/nmoore/.rbenv/versions/2.5.8/lib/ruby/gems/2.5.0/gems/urbanopt-geojson-0.5.2/lib/measures",
      "/Users/nmoore/.rbenv/versions/2.5.8/lib/ruby/gems/2.5.0/gems/urbanopt-reopt-0.5.4/lib/measures",
      "/Users/nmoore/.rbenv/versions/2.5.8/lib/ruby/gems/2.5.0/gems/urbanopt-reporting-0.3.6/lib/measures",
      "/Users/nmoore/.rbenv/versions/2.5.8/lib/ruby/gems/2.5.0/gems/urbanopt-scenario-0.5.1/lib/measures"
   ],
   "name" : "Restaurant 1",
   "run_directory" : "/Users/nmoore/github/bbb/run/baseline_scenario/2",
   "seed_file" : null,
   "started_at" : "20210302T164731Z",
   "steps" :
   [
      {
         "arguments" :
         {
            "__SKIP__" : false,
            "begin_date" : "2017-01-01",
            "end_date" : "2017-12-31",
            "timesteps_per_hour" : 1
         },
         "measure_dir_name" : "set_run_period",
         "result" :
         {
            "completed_at" : "20210302T164731Z",
            "measure_class_name" : "SetRunPeriod",
            "measure_display_name" : "SetRunPeriod",
            "measure_name" : "set_run_period",
            "measure_taxonomy" : "Envelope.Form",
            "measure_type" : "ModelMeasure",
            "measure_uid" : "7a84292a-3975-4ab3-9284-6edabcbe750b",
            "measure_version_id" : "4f0334fc-172b-40ec-99e5-1c83e308f760",
            "measure_version_modified" : "20200623T205026Z",
            "measure_xml_checksum" : "2AF3A68E",
            "started_at" : "20210302T164731Z",
            "stderr" : "",
            "stdout" : "",
            "step_errors" : [],
            "step_files" : [],
            "step_info" : [],
            "step_result" : "Success",
            "step_values" :
            [
               {
                  "name" : "timesteps_per_hour",
                  "value" : 1
               },
               {
                  "name" : "begin_date",
                  "value" : "2017-01-01"
               },
               {
                  "name" : "end_date",
                  "value" : "2017-12-31"
               }
            ],
            "step_warnings" : []
         }
      },
      {
         "arguments" :
         {
            "__SKIP__" : false,
            "climate_zone" : "ASHRAE 169-2013-6A",
            "weather_file_name" : "USA_NY_Buffalo-Greater.Buffalo.Intl.AP.725280_TMY3.epw"
         },
         "measure_dir_name" : "ChangeBuildingLocation",
         "result" :
         {
            "completed_at" : "20210302T164733Z",
            "measure_class_name" : "ChangeBuildingLocation",
            "measure_display_name" : "ChangeBuildingLocation",
            "measure_name" : "change_building_location",
            "measure_taxonomy" : "Whole Building.Space Types",
            "measure_type" : "ModelMeasure",
            "measure_uid" : "d4db4971-f5ba-11e3-a3ac-0800200c9a66",
            "measure_version_id" : "0c3c39a2-f5d3-43c1-bdc0-7a32a9379f1a",
            "measure_version_modified" : "20200623T195838Z",
            "measure_xml_checksum" : "057E8D9D",
            "started_at" : "20210302T164732Z",
            "stderr" : "",
            "stdout" : "[openstudio.model.YearDescription] <1> 'UseWeatherFile' is not yet a supported option for YearDescription\n[openstudio.model.YearDescription] <1> 'UseWeatherFile' is not yet a supported option for YearDescription\n",
            "step_errors" : [],
            "step_files" : [],
            "step_final_condition" : "The final weather file is Buffalo Niagara Intl Ap and the model has 3 design day objects.",
            "step_info" :
            [
               "city is Buffalo Niagara Intl Ap. State is NY",
               "mean dry bulb is 8.966666666666667",
               "Adding object Buffalo Niagara Intl Ap Ann Clg .4% Condns DB=>MWB",
               "Adding object Buffalo Niagara Intl Ap Ann Clg .4% Condns WB=>MDB",
               "Adding object Buffalo Niagara Intl Ap Ann Htg 99.6% Condns DB",
               "Setting ASHRAE Climate Zone to 6A"
            ],
            "step_initial_condition" : "No weather file is set. The model has 0 design day objects",
            "step_result" : "Success",
            "step_values" :
            [
               {
                  "name" : "weather_file_name",
                  "value" : "USA_NY_Buffalo-Greater.Buffalo.Intl.AP.725280_TMY3.epw"
               },
               {
                  "name" : "climate_zone",
                  "value" : "ASHRAE 169-2013-6A"
               },
               {
                  "name" : "set_year",
                  "value" : 0
               },
               {
                  "name" : "use_upstream_args",
                  "value" : true
               },
               {
                  "name" : "epw_gsub",
                  "value" : "Do Nothing"
               },
               {
                  "name" : "reported_climate_zone",
                  "value" : "ASHRAE 169-2013-6A"
               }
            ],
            "step_warnings" : []
         }
      },
      {
         "arguments" :
         {
            "__SKIP__" : false,
            "bar_division_method" : "Multiple Space Types - Individual Stories Sliced",
            "bldg_type_a" : "FullServiceRestaurant",
            "bldg_type_a_num_units" : 0,
            "bldg_type_b" : "SmallOffice",
            "bldg_type_b_fract_bldg_area" : 0,
            "bldg_type_b_num_units" : 0,
            "bldg_type_c" : "SmallOffice",
            "bldg_type_c_fract_bldg_area" : 0,
            "bldg_type_c_num_units" : 0,
            "bldg_type_d" : "SmallOffice",
            "bldg_type_d_fract_bldg_area" : 0,
            "bldg_type_d_num_units" : 0,
            "building_rotation" : 0,
            "floor_height" : 10,
            "ns_to_ew_ratio" : 0,
            "num_stories_above_grade" : 1,
            "num_stories_below_grade" : 0,
            "party_wall_fraction" : 0,
            "single_floor_area" : 22313,
            "story_multiplier" : "None",
            "template" : "90.1-2013",
            "wwr" : 0
         },
         "measure_dir_name" : "create_bar_from_building_type_ratios",
         "result" :
         {
            "completed_at" : "20210302T164738Z",
            "measure_class_name" : "CreateBarFromBuildingTypeRatios",
            "measure_display_name" : "Create Bar From Building Type Ratios",
            "measure_name" : "create_bar_from_building_type_ratios",
            "measure_taxonomy" : "Envelope.Form",
            "measure_type" : "ModelMeasure",
            "measure_uid" : "6e3a14f8-c3c7-4e03-bc51-bef8a52e1a05",
            "measure_version_id" : "c569be27-f463-4721-8bfb-72bd6775d70e",
            "measure_version_modified" : "20200512T025555Z",
            "measure_xml_checksum" : "2AF3A68E",
            "started_at" : "20210302T164736Z",
            "stderr" : "",
            "stdout" : "",
            "step_errors" : [],
            "step_files" : [],
            "step_final_condition" : "The building finished with 12 spaces.",
            "step_info" :
            [
               "Replacing argument named climate_zone from current measure with a value of ASHRAE 169-2013-6A from ChangeBuildingLocation.",
               "0.0 value for aspect ratio will be replaced with smart default for FullServiceRestaurant of 1.0.",
               "0.0 value for minimum perimeter multiplier will be replaced with smart default for FullServiceRestaurant of 1.0.",
               "0.0 value for window to wall ratio will be replaced with smart default for FullServiceRestaurant of 0.18.",
               "Creating Space Types for FullServiceRestaurant.",
               "Making bar with length of 149 ft and width of 149 ft",
               "Intersecting and matching surfaces in story Story Ground, this will create additional geometry.",
               "Created bar envelope with floor area of 22,313 ft^2. Total building area is 22,313 ft^2."
            ],
            "step_initial_condition" : "The building started with 0 spaces.",
            "step_result" : "Success",
            "step_values" :
            [
               {
                  "name" : "bldg_type_a",
                  "value" : "FullServiceRestaurant"
               },
               {
                  "name" : "bldg_type_a_num_units",
                  "value" : 0
               },
               {
                  "name" : "bldg_type_b",
                  "value" : "SmallOffice"
               },
               {
                  "name" : "bldg_type_b_fract_bldg_area",
                  "value" : 0.0
               },
               {
                  "name" : "bldg_type_b_num_units",
                  "value" : 0
               },
               {
                  "name" : "bldg_type_c",
                  "value" : "SmallOffice"
               },
               {
                  "name" : "bldg_type_c_fract_bldg_area",
                  "value" : 0.0
               },
               {
                  "name" : "bldg_type_c_num_units",
                  "value" : 0
               },
               {
                  "name" : "bldg_type_d",
                  "value" : "SmallOffice"
               },
               {
                  "name" : "bldg_type_d_fract_bldg_area",
                  "value" : 0.0
               },
               {
                  "name" : "bldg_type_d_num_units",
                  "value" : 0
               },
               {
                  "name" : "total_bldg_floor_area",
                  "value" : 10000.0
               },
               {
                  "name" : "single_floor_area",
                  "value" : 22313.0
               },
               {
                  "name" : "floor_height",
                  "value" : 10.0
               },
               {
                  "name" : "custom_height_bar",
                  "value" : true
               },
               {
                  "name" : "num_stories_above_grade",
                  "value" : 1.0
               },
               {
                  "name" : "num_stories_below_grade",
                  "value" : 0
               },
               {
                  "name" : "building_rotation",
                  "value" : 0.0
               },
               {
                  "name" : "template",
                  "value" : "90.1-2013"
               },
               {
                  "name" : "ns_to_ew_ratio",
                  "value" : 0.0
               },
               {
                  "name" : "perim_mult",
                  "value" : 0.0
               },
               {
                  "name" : "bar_sep_dist_mult",
                  "value" : 10.0
               },
               {
                  "name" : "wwr",
                  "value" : 0.0
               },
               {
                  "name" : "party_wall_fraction",
                  "value" : 0.0
               },
               {
                  "name" : "party_wall_stories_north",
                  "value" : 0
               },
               {
                  "name" : "party_wall_stories_south",
                  "value" : 0
               },
               {
                  "name" : "party_wall_stories_east",
                  "value" : 0
               },
               {
                  "name" : "party_wall_stories_west",
                  "value" : 0
               },
               {
                  "name" : "bottom_story_ground_exposed_floor",
                  "value" : true
               },
               {
                  "name" : "top_story_exterior_exposed_roof",
                  "value" : true
               },
               {
                  "name" : "story_multiplier",
                  "value" : "None"
               },
               {
                  "name" : "make_mid_story_surfaces_adiabatic",
                  "value" : true
               },
               {
                  "name" : "bar_division_method",
                  "value" : "Multiple Space Types - Individual Stories Sliced"
               },
               {
                  "name" : "double_loaded_corridor",
                  "value" : "Primary Space Type"
               },
               {
                  "name" : "space_type_sort_logic",
                  "value" : "Building Type > Size"
               },
               {
                  "name" : "use_upstream_args",
                  "value" : true
               },
               {
                  "name" : "climate_zone",
                  "value" : "Lookup From Stat File"
               },
               {
                  "name" : "wall_area_ip",
                  "units" : "ft^2",
                  "value" : 5975.0146443335179
               },
               {
                  "name" : "ns_wall_area_ip",
                  "units" : "ft^2",
                  "value" : 2987.5073221667585
               },
               {
                  "name" : "ew_wall_area_ip",
                  "units" : "ft^2",
                  "value" : 2987.507322166759
               },
               {
                  "name" : "floor_area_to_perim_ratio",
                  "value" : 11.38240289745535
               },
               {
                  "name" : "bar_width",
                  "units" : "ft",
                  "value" : 149.37536610833794
               }
            ],
            "step_warnings" :
            [
               "User-defined single floor area was used for calculation of total building floor area",
               "Cannot use custom height bar with single floor area method, will not create custom height bar."
            ]
         }
      },
      {
         "arguments" :
         {
            "__SKIP__" : false,
            "add_hvac" : false,
            "add_refrigeration" : false,
            "template" : "90.1-2013"
         },
         "measure_dir_name" : "create_typical_building_from_model",
         "name" : "create_typical_building_from_model 1",
         "result" :
         {
            "completed_at" : "20210302T164740Z",
            "measure_class_name" : "CreateTypicalBuildingFromModel",
            "measure_display_name" : "Create Typical Building from Model",
            "measure_name" : "create_typical_building_from_model",
            "measure_taxonomy" : "Whole Building.Space Types",
            "measure_type" : "ModelMeasure",
            "measure_uid" : "339a2e3a-273c-4494-bb50-bfe586a0647c",
            "measure_version_id" : "cf4a5895-bc2f-4b83-925c-7eaaeb3d0913",
            "measure_version_modified" : "20200911T195900Z",
            "measure_xml_checksum" : "EE13F09F",
            "started_at" : "20210302T164738Z",
            "stderr" : "",
            "stdout" : "",
            "step_errors" : [],
            "step_files" : [],
            "step_final_condition" : "The building finished with 699 objects.",
            "step_info" :
            [
               "Replacing argument named climate_zone from current measure with a value of ASHRAE 169-2013-6A from ChangeBuildingLocation.",
               "Replacing argument named template from current measure with a value of 90.1-2013 from create_bar_from_building_type_ratios.",
               "Using climate zone ASHRAE 169-2013-6A from user arguments",
               "Adding loads to space type named FullServiceRestaurant Dining - 90.1-2013",
               "Adding loads to space type named FullServiceRestaurant Kitchen - 90.1-2013",
               "Adding default construction set named Res 90.1-2013 - FullSrvRest - ASHRAE 169-2013-6A",
               "No elevators added to the building.",
               "Adding Exterior Lights named Parking Areas and Drives Def (W/ft^2) with design level of 0.1 * 90,368.",
               "Adding Exterior Lights named Building Facades Def (W/ft^2) with design level of 0.15 * 5,975.",
               "Adding Exterior Lights named Main Entries Def (W/ft) with design level of 30.0 * 18.",
               "Adding Exterior Lights named Other Doors Def (W/ft) with design level of 20.0 * 27.",
               "Adding 270 (cfm) of exhaust to Zone FullServiceRestaurant Kitchen A  - Story Ground, with 252 (cfm) of makeup air from Zone FullServiceRestaurant Dining A  - Story Ground",
               "Adding 157 (cfm) of exhaust to Zone FullServiceRestaurant Kitchen A end_b - Story Ground",
               "Adding 2,152 (cfm) of exhaust to Zone FullServiceRestaurant Kitchen B  - Story Ground, with 2,009 (cfm) of makeup air from Zone FullServiceRestaurant Dining B  - Story Ground",
               "Adding 1,253 (cfm) of exhaust to Zone FullServiceRestaurant Kitchen B end_b - Story Ground",
               "Adding 270 (cfm) of exhaust to Zone FullServiceRestaurant Kitchen C  - Story Ground, with 252 (cfm) of makeup air from Zone FullServiceRestaurant Dining C  - Story Ground",
               "Adding 158 (cfm) of exhaust to Zone FullServiceRestaurant Kitchen C end_b - Story Ground",
               "Adding FullServiceRestaurant Kitchen - 90.1-2013 Service Water Loop to the building. It has 1 water use connections.",
               "Assigning FullServiceRestaurant Dining - 90.1-2013 Thermostat to thermal zones with FullServiceRestaurant Dining - 90.1-2013 assigned.",
               "Assigning FullServiceRestaurant Kitchen - 90.1-2013 Thermostat to thermal zones with FullServiceRestaurant Kitchen - 90.1-2013 assigned.",
               "Using OpenStudio Standards version 0.2.12 with template 90.1-2013.",
               "Loading OpenStudio Standards data for 90.1-2013",
               "FullServiceRestaurant Dining had no people, one has been created.",
               "FullServiceRestaurant Dining set occupancy to 70.0 people/1000 ft^2.",
               "FullServiceRestaurant Dining had no lights, one has been created.",
               "FullServiceRestaurant Dining set LPD to 0.89 W/ft^2.",
               "FullServiceRestaurant Dining had no electric equipment, one has been created.",
               "FullServiceRestaurant Dining set electric EPD to 6.032 W/ft^2.",
               "FullServiceRestaurant Dining had no ventilation specification, one has been created.",
               "FullServiceRestaurant Dining set ventilation per area to 0.18 cfm/ft^2.",
               "FullServiceRestaurant Dining set ventilation per person to 7.5 cfm/person.",
               "FullServiceRestaurant Dining set occupancy schedule to RestaurantSitDown BLDG_OCC_SCH.",
               "FullServiceRestaurant Dining set occupant activity schedule to RestaurantSitDown ACTIVITY_SCH.",
               "FullServiceRestaurant Dining set lighting schedule to RestaurantSitDown BLDG_LIGHT_DINING_SCH_2013.",
               "FullServiceRestaurant Dining set electric equipment schedule to RestaurantSitDown BLDG_EQUIP_SCH.",
               "FullServiceRestaurant Dining set infiltration schedule to RestaurantSitDown INFIL_HALF_ON_SCH.",
               "FullServiceRestaurant Kitchen had no people, one has been created.",
               "FullServiceRestaurant Kitchen set occupancy to 5.0 people/1000 ft^2.",
               "FullServiceRestaurant Kitchen had no lights, one has been created.",
               "FullServiceRestaurant Kitchen set LPD to 1.21 W/ft^2.",
               "FullServiceRestaurant Kitchen had no electric equipment, one has been created.",
               "FullServiceRestaurant Kitchen set electric EPD to 37.53 W/ft^2.",
               "FullServiceRestaurant Kitchen had no gas equipment, one has been created.",
               "FullServiceRestaurant Kitchen set gas EPD to 205.81 Btu/hr*ft^2.",
               "FullServiceRestaurant Kitchen had no ventilation specification, one has been created.",
               "FullServiceRestaurant Kitchen set ventilation per area to 0.18 cfm/ft^2.",
               "FullServiceRestaurant Kitchen set ventilation per person to 7.5 cfm/person.",
               "FullServiceRestaurant Kitchen set occupancy schedule to RestaurantSitDown BLDG_OCC_SCH.",
               "FullServiceRestaurant Kitchen set occupant activity schedule to RestaurantSitDown ACTIVITY_SCH.",
               "FullServiceRestaurant Kitchen set lighting schedule to RestaurantSitDown BLDG_LIGHT_KITCHEN_SCH_2010_2013.",
               "FullServiceRestaurant Kitchen set electric equipment schedule to RestaurantSitDown BLDG_EQUIP_SCH.",
               "FullServiceRestaurant Kitchen set gas equipment schedule to RestaurantSitDown Rest_GAS_EQUIP_SCH.",
               "FullServiceRestaurant Kitchen set infiltration schedule to RestaurantSitDown INFIL_HALF_ON_SCH.",
               "Adding construction set: 90.1-2013-ASHRAE 169-2013-6A-FullServiceRestaurant--is_residentialNo",
               "Adding construction Typical Insulated Exterior Mass Floor R-19.61.",
               "Adding construction Typical Insulated Steel Framed Exterior Wall R-20.41.",
               "Adding construction Typical Wood Joist Attic Floor R-47.62.",
               "Adding construction Typical Interior Floor.",
               "Adding construction Typical Interior Wall.",
               "Adding construction Typical Interior Ceiling.",
               "Adding construction Typical Insulated Carpeted 8in Slab Floor.",
               "Adding construction Typical Insulated Basement Mass Wall.",
               "Adding construction U 0.48 SHGC 0.40 Dbl Ref-D Clr 6mm/13mm.",
               "Adding construction Typical Insulated Metal Door R-2.0.",
               "Adding construction U 0.44 SHGC 0.26 Dbl Ref-B-H Clr 6mm/13mm Air.",
               "Adding construction Typical Overhead Door R-2.0.",
               "Adding construction Window_U_0.50_SHGC_0.40_Skylight_Frame_Width_0.430_in.",
               "Adding construction Typical Interior Window.",
               "Adding construction Typical Interior Door.",
               "Adding construction Typical Interior Partition.",
               "For FullServiceRestaurant Dining A  - Story Ground, set infiltration rate to 0.112 cfm/ft2 exterior wall area (aka 1.0 cfm/ft2 @75Pa).",
               "For FullServiceRestaurant Dining A end_a - Story Ground, set infiltration rate to 0.112 cfm/ft2 exterior wall area (aka 1.0 cfm/ft2 @75Pa).",
               "For FullServiceRestaurant Dining B  - Story Ground, no exterior wall area was found, no infiltration will be added.",
               "For FullServiceRestaurant Dining B end_a - Story Ground, set infiltration rate to 0.112 cfm/ft2 exterior wall area (aka 1.0 cfm/ft2 @75Pa).",
               "For FullServiceRestaurant Dining C  - Story Ground, set infiltration rate to 0.112 cfm/ft2 exterior wall area (aka 1.0 cfm/ft2 @75Pa).",
               "For FullServiceRestaurant Dining C end_a - Story Ground, set infiltration rate to 0.112 cfm/ft2 exterior wall area (aka 1.0 cfm/ft2 @75Pa).",
               "For FullServiceRestaurant Kitchen A  - Story Ground, set infiltration rate to 0.112 cfm/ft2 exterior wall area (aka 1.0 cfm/ft2 @75Pa).",
               "For FullServiceRestaurant Kitchen A end_b - Story Ground, set infiltration rate to 0.112 cfm/ft2 exterior wall area (aka 1.0 cfm/ft2 @75Pa).",
               "For FullServiceRestaurant Kitchen B  - Story Ground, no exterior wall area was found, no infiltration will be added.",
               "For FullServiceRestaurant Kitchen B end_b - Story Ground, set infiltration rate to 0.112 cfm/ft2 exterior wall area (aka 1.0 cfm/ft2 @75Pa).",
               "For FullServiceRestaurant Kitchen C  - Story Ground, set infiltration rate to 0.112 cfm/ft2 exterior wall area (aka 1.0 cfm/ft2 @75Pa).",
               "For FullServiceRestaurant Kitchen C end_b - Story Ground, set infiltration rate to 0.112 cfm/ft2 exterior wall area (aka 1.0 cfm/ft2 @75Pa).",
               "The building only has 1 story, no elevators will be added.",
               "For FullServiceRestaurant Dining - 90.1-2013, floor area = 16226 ft^2.",
               "For FullServiceRestaurant Dining - 90.1-2013, number of spaces = 6.",
               "For FullServiceRestaurant Dining - 90.1-2013, number of people = 1136.",
               "For FullServiceRestaurant Kitchen - 90.1-2013, floor area = 6087 ft^2.",
               "For FullServiceRestaurant Kitchen - 90.1-2013, number of spaces = 6.",
               "For FullServiceRestaurant Kitchen - 90.1-2013, number of people = 30.",
               "Facade and Landscape exterior lights shut off from {:hr=>24, :min=>0} to {:hr=>6, :min=>0}",
               "Non Facade and Landscape lights reduce by 30.0 % from {:hr=>24, :min=>0} to {:hr=>6, :min=>0}",
               "Added 0.1 W/ft^2 of lighting for 90367.64999999998 ft^2 of parking area.",
               "Added 0.15 W/ft^2 of lighting for 5975.014644333517 ft^2 of building facade area.",
               "Added 30.0 W/ft of lighting for 17.850399999999993 ft of main entry length.",
               "Added 20.0 W/ft of lighting for 26.77559999999999 ft of other doors.",
               "For Prototype: Zone FullServiceRestaurant Kitchen A  - Story Ground Exhaust Fan: Pressure Rise = 0.5in w.c.",
               "For Zone FullServiceRestaurant Kitchen A  - Story Ground Exhaust Fan: allowed_hp = 0.04HP; motor eff = 70.0%; total fan eff = 39% based on 270 cfm.",
               "For Prototype: Zone FullServiceRestaurant Kitchen A end_b - Story Ground Exhaust Fan: Pressure Rise = 0.5in w.c.",
               "For Zone FullServiceRestaurant Kitchen A end_b - Story Ground Exhaust Fan: allowed_hp = 0.02HP; motor eff = 70.0%; total fan eff = 39% based on 157 cfm.",
               "For Prototype: Zone FullServiceRestaurant Kitchen B  - Story Ground Exhaust Fan: Pressure Rise = 0.5in w.c.",
               "For Zone FullServiceRestaurant Kitchen B  - Story Ground Exhaust Fan: allowed_hp = 0.34HP; motor eff = 70.0%; total fan eff = 39% based on 2152 cfm.",
               "For Prototype: Zone FullServiceRestaurant Kitchen B end_b - Story Ground Exhaust Fan: Pressure Rise = 0.5in w.c.",
               "For Zone FullServiceRestaurant Kitchen B end_b - Story Ground Exhaust Fan: allowed_hp = 0.2HP; motor eff = 70.0%; total fan eff = 39% based on 1253 cfm.",
               "For Prototype: Zone FullServiceRestaurant Kitchen C  - Story Ground Exhaust Fan: Pressure Rise = 0.5in w.c.",
               "For Zone FullServiceRestaurant Kitchen C  - Story Ground Exhaust Fan: allowed_hp = 0.04HP; motor eff = 70.0%; total fan eff = 39% based on 270 cfm.",
               "For Prototype: Zone FullServiceRestaurant Kitchen C end_b - Story Ground Exhaust Fan: Pressure Rise = 0.5in w.c.",
               "For Zone FullServiceRestaurant Kitchen C end_b - Story Ground Exhaust Fan: allowed_hp = 0.02HP; motor eff = 70.0%; total fan eff = 39% based on 158 cfm.",
               "For FullServiceRestaurant Dining - 90.1-2013, floor area = 16226 ft^2.",
               "For FullServiceRestaurant Dining - 90.1-2013, number of spaces = 6.",
               "For FullServiceRestaurant Dining - 90.1-2013, number of people = 1136.",
               "For FullServiceRestaurant Kitchen - 90.1-2013, floor area = 6087 ft^2.",
               "For FullServiceRestaurant Kitchen - 90.1-2013, number of spaces = 6.",
               "For FullServiceRestaurant Kitchen - 90.1-2013, number of people = 30.",
[...]
               "KEY VALUES: []",
               "!! TIMESERIES NAME: District Heating Hot Water Rate AND key_value: ",
               "Is NOT Initialized",
               "TIMESERIES: District Heating Mass Flow Rate",
               "KEY VALUES: []",
               "!! TIMESERIES NAME: District Heating Mass Flow Rate AND key_value: ",
               "Is NOT Initialized",
               "TIMESERIES: District Heating Inlet Temperature",
               "KEY VALUES: []",
               "!! TIMESERIES NAME: District Heating Inlet Temperature AND key_value: ",
               "Is NOT Initialized",
               "TIMESERIES: District Heating Outlet Temperature",
               "KEY VALUES: []",
               "!! TIMESERIES NAME: District Heating Outlet Temperature AND key_value: ",
               "Is NOT Initialized",
               "TIMESERIES: Cooling Coil Total Cooling Rate",
               "KEY VALUES: [\"BUILDING STORY 1 THERMALZONE 1 PSZ-AC 1SPD DX AC CLG COIL 169KBTU/HR 10.8EER\", \"BUILDING STORY 1 THERMALZONE 2 PSZ-AC 1SPD DX AC CLG COIL 60KBTU/HR 14.0SEER\", \"BUILDING STORY 1 THERMALZONE 3 PSZ-AC 1SPD DX AC CLG COIL 153KBTU/HR 10.8EER\", \"BUILDING STORY 1 THERMALZONE 4 PSZ-AC 1SPD DX AC CLG COIL 71KBTU/HR 11.0EER\", \"BUILDING STORY 1 THERMALZONE PSZ-AC 1SPD DX AC CLG COIL 856KBTU/HR 9.5EER\"]",
               "!! TIMESERIES NAME: Cooling Coil Total Cooling Rate AND key_value: BUILDING STORY 1 THERMALZONE 1 PSZ-AC 1SPD DX AC CLG COIL 169KBTU/HR 10.8EER",
               "Is Initialized",
               "!! TIMESERIES NAME: Cooling Coil Total Cooling Rate AND key_value: BUILDING STORY 1 THERMALZONE 2 PSZ-AC 1SPD DX AC CLG COIL 60KBTU/HR 14.0SEER",
               "Is Initialized",
               "!! TIMESERIES NAME: Cooling Coil Total Cooling Rate AND key_value: BUILDING STORY 1 THERMALZONE 3 PSZ-AC 1SPD DX AC CLG COIL 153KBTU/HR 10.8EER",
               "Is Initialized",
               "!! TIMESERIES NAME: Cooling Coil Total Cooling Rate AND key_value: BUILDING STORY 1 THERMALZONE 4 PSZ-AC 1SPD DX AC CLG COIL 71KBTU/HR 11.0EER",
               "Is Initialized",
               "!! TIMESERIES NAME: Cooling Coil Total Cooling Rate AND key_value: BUILDING STORY 1 THERMALZONE PSZ-AC 1SPD DX AC CLG COIL 856KBTU/HR 9.5EER",
               "Is Initialized",
               "TIMESERIES: Heating Coil Heating Rate",
               "KEY VALUES: [\"BUILDING STORY 1 THERMALZONE 1 PSZ-AC ELECTRIC BACKUP HTG COIL\", \"BUILDING STORY 1 THERMALZONE 1 PSZ-AC GAS HTG COIL\", \"BUILDING STORY 1 THERMALZONE 2 PSZ-AC ELECTRIC BACKUP HTG COIL\", \"BUILDING STORY 1 THERMALZONE 2 PSZ-AC GAS HTG COIL\", \"BUILDING STORY 1 THERMALZONE 3 PSZ-AC ELECTRIC BACKUP HTG COIL\", \"BUILDING STORY 1 THERMALZONE 3 PSZ-AC GAS HTG COIL\", \"BUILDING STORY 1 THERMALZONE 4 PSZ-AC ELECTRIC BACKUP HTG COIL\", \"BUILDING STORY 1 THERMALZONE 4 PSZ-AC GAS HTG COIL\", \"BUILDING STORY 1 THERMALZONE PSZ-AC ELECTRIC BACKUP HTG COIL\", \"BUILDING STORY 1 THERMALZONE PSZ-AC GAS HTG COIL\"]",
               "!! TIMESERIES NAME: Heating Coil Heating Rate AND key_value: BUILDING STORY 1 THERMALZONE 1 PSZ-AC ELECTRIC BACKUP HTG COIL",
               "Is Initialized",
               "!! TIMESERIES NAME: Heating Coil Heating Rate AND key_value: BUILDING STORY 1 THERMALZONE 1 PSZ-AC GAS HTG COIL",
               "Is Initialized",
               "!! TIMESERIES NAME: Heating Coil Heating Rate AND key_value: BUILDING STORY 1 THERMALZONE 2 PSZ-AC ELECTRIC BACKUP HTG COIL",
               "Is Initialized",
               "!! TIMESERIES NAME: Heating Coil Heating Rate AND key_value: BUILDING STORY 1 THERMALZONE 2 PSZ-AC GAS HTG COIL",
               "Is Initialized",
               "!! TIMESERIES NAME: Heating Coil Heating Rate AND key_value: BUILDING STORY 1 THERMALZONE 3 PSZ-AC ELECTRIC BACKUP HTG COIL",
               "Is Initialized",
               "!! TIMESERIES NAME: Heating Coil Heating Rate AND key_value: BUILDING STORY 1 THERMALZONE 3 PSZ-AC GAS HTG COIL",
               "Is Initialized",
               "!! TIMESERIES NAME: Heating Coil Heating Rate AND key_value: BUILDING STORY 1 THERMALZONE 4 PSZ-AC ELECTRIC BACKUP HTG COIL",
               "Is Initialized",
               "!! TIMESERIES NAME: Heating Coil Heating Rate AND key_value: BUILDING STORY 1 THERMALZONE 4 PSZ-AC GAS HTG COIL",
               "Is Initialized",
               "!! TIMESERIES NAME: Heating Coil Heating Rate AND key_value: BUILDING STORY 1 THERMALZONE PSZ-AC ELECTRIC BACKUP HTG COIL",
               "Is Initialized",
               "!! TIMESERIES NAME: Heating Coil Heating Rate AND key_value: BUILDING STORY 1 THERMALZONE PSZ-AC GAS HTG COIL",
               "Is Initialized",
               "TIMESERIES: Zone Thermal Comfort Fanger Model PMV",
               "KEY VALUES: [\"BUILDING STORY 1 THERMALZONE 1 FULLSERVICERESTAURANT DINING PEOPLE 1\", \"BUILDING STORY 1 THERMALZONE 1 FULLSERVICERESTAURANT KITCHEN PEOPLE 1\", \"BUILDING STORY 1 THERMALZONE 2 FULLSERVICERESTAURANT DINING PEOPLE 1\", \"BUILDING STORY 1 THERMALZONE 2 FULLSERVICERESTAURANT KITCHEN PEOPLE 1\", \"BUILDING STORY 1 THERMALZONE 3 FULLSERVICERESTAURANT DINING PEOPLE 1\", \"BUILDING STORY 1 THERMALZONE 3 FULLSERVICERESTAURANT KITCHEN PEOPLE 1\", \"BUILDING STORY 1 THERMALZONE 4 FULLSERVICERESTAURANT DINING PEOPLE 1\", \"BUILDING STORY 1 THERMALZONE 4 FULLSERVICERESTAURANT KITCHEN PEOPLE 1\", \"BUILDING STORY 1 THERMALZONE FULLSERVICERESTAURANT DINING PEOPLE 1\", \"BUILDING STORY 1 THERMALZONE FULLSERVICERESTAURANT KITCHEN PEOPLE 1\"]",
               "!! TIMESERIES NAME: Zone Thermal Comfort Fanger Model PMV AND key_value: BUILDING STORY 1 THERMALZONE 1 FULLSERVICERESTAURANT DINING PEOPLE 1",
               "Is Initialized",
               "SETTING UP NEW ARRAY FOR: Zone Thermal Comfort Fanger Model PMV",
               "!! TIMESERIES NAME: Zone Thermal Comfort Fanger Model PMV AND key_value: BUILDING STORY 1 THERMALZONE 1 FULLSERVICERESTAURANT KITCHEN PEOPLE 1",
               "Is Initialized",
               "!! TIMESERIES NAME: Zone Thermal Comfort Fanger Model PMV AND key_value: BUILDING STORY 1 THERMALZONE 2 FULLSERVICERESTAURANT DINING PEOPLE 1",
               "Is Initialized",
               "!! TIMESERIES NAME: Zone Thermal Comfort Fanger Model PMV AND key_value: BUILDING STORY 1 THERMALZONE 2 FULLSERVICERESTAURANT KITCHEN PEOPLE 1",
               "Is Initialized",
               "!! TIMESERIES NAME: Zone Thermal Comfort Fanger Model PMV AND key_value: BUILDING STORY 1 THERMALZONE 3 FULLSERVICERESTAURANT DINING PEOPLE 1",
               "Is Initialized",
               "!! TIMESERIES NAME: Zone Thermal Comfort Fanger Model PMV AND key_value: BUILDING STORY 1 THERMALZONE 3 FULLSERVICERESTAURANT KITCHEN PEOPLE 1",
               "Is Initialized",
               "!! TIMESERIES NAME: Zone Thermal Comfort Fanger Model PMV AND key_value: BUILDING STORY 1 THERMALZONE 4 FULLSERVICERESTAURANT DINING PEOPLE 1",
               "Is Initialized",
               "!! TIMESERIES NAME: Zone Thermal Comfort Fanger Model PMV AND key_value: BUILDING STORY 1 THERMALZONE 4 FULLSERVICERESTAURANT KITCHEN PEOPLE 1",
               "Is Initialized",
               "!! TIMESERIES NAME: Zone Thermal Comfort Fanger Model PMV AND key_value: BUILDING STORY 1 THERMALZONE FULLSERVICERESTAURANT DINING PEOPLE 1",
               "Is Initialized",
               "!! TIMESERIES NAME: Zone Thermal Comfort Fanger Model PMV AND key_value: BUILDING STORY 1 THERMALZONE FULLSERVICERESTAURANT KITCHEN PEOPLE 1",
               "Is Initialized",
               "timeseries Zone Thermal Comfort Fanger Model PMV: hours out of bounds: 1635.0",
               "TIMESERIES: Zone Thermal Comfort Fanger Model PPD",
               "KEY VALUES: [\"BUILDING STORY 1 THERMALZONE 1 FULLSERVICERESTAURANT DINING PEOPLE 1\", \"BUILDING STORY 1 THERMALZONE 1 FULLSERVICERESTAURANT KITCHEN PEOPLE 1\", \"BUILDING STORY 1 THERMALZONE 2 FULLSERVICERESTAURANT DINING PEOPLE 1\", \"BUILDING STORY 1 THERMALZONE 2 FULLSERVICERESTAURANT KITCHEN PEOPLE 1\", \"BUILDING STORY 1 THERMALZONE 3 FULLSERVICERESTAURANT DINING PEOPLE 1\", \"BUILDING STORY 1 THERMALZONE 3 FULLSERVICERESTAURANT KITCHEN PEOPLE 1\", \"BUILDING STORY 1 THERMALZONE 4 FULLSERVICERESTAURANT DINING PEOPLE 1\", \"BUILDING STORY 1 THERMALZONE 4 FULLSERVICERESTAURANT KITCHEN PEOPLE 1\", \"BUILDING STORY 1 THERMALZONE FULLSERVICERESTAURANT DINING PEOPLE 1\", \"BUILDING STORY 1 THERMALZONE FULLSERVICERESTAURANT KITCHEN PEOPLE 1\"]",
               "!! TIMESERIES NAME: Zone Thermal Comfort Fanger Model PPD AND key_value: BUILDING STORY 1 THERMALZONE 1 FULLSERVICERESTAURANT DINING PEOPLE 1",
               "Is Initialized",
               "SETTING UP NEW ARRAY FOR: Zone Thermal Comfort Fanger Model PPD",
               "!! TIMESERIES NAME: Zone Thermal Comfort Fanger Model PPD AND key_value: BUILDING STORY 1 THERMALZONE 1 FULLSERVICERESTAURANT KITCHEN PEOPLE 1",
               "Is Initialized",
               "!! TIMESERIES NAME: Zone Thermal Comfort Fanger Model PPD AND key_value: BUILDING STORY 1 THERMALZONE 2 FULLSERVICERESTAURANT DINING PEOPLE 1",
               "Is Initialized",
               "!! TIMESERIES NAME: Zone Thermal Comfort Fanger Model PPD AND key_value: BUILDING STORY 1 THERMALZONE 2 FULLSERVICERESTAURANT KITCHEN PEOPLE 1",
               "Is Initialized",
               "!! TIMESERIES NAME: Zone Thermal Comfort Fanger Model PPD AND key_value: BUILDING STORY 1 THERMALZONE 3 FULLSERVICERESTAURANT DINING PEOPLE 1",
               "Is Initialized",
               "!! TIMESERIES NAME: Zone Thermal Comfort Fanger Model PPD AND key_value: BUILDING STORY 1 THERMALZONE 3 FULLSERVICERESTAURANT KITCHEN PEOPLE 1",
               "Is Initialized",
               "!! TIMESERIES NAME: Zone Thermal Comfort Fanger Model PPD AND key_value: BUILDING STORY 1 THERMALZONE 4 FULLSERVICERESTAURANT DINING PEOPLE 1",
               "Is Initialized",
               "!! TIMESERIES NAME: Zone Thermal Comfort Fanger Model PPD AND key_value: BUILDING STORY 1 THERMALZONE 4 FULLSERVICERESTAURANT KITCHEN PEOPLE 1",
               "Is Initialized",
               "!! TIMESERIES NAME: Zone Thermal Comfort Fanger Model PPD AND key_value: BUILDING STORY 1 THERMALZONE FULLSERVICERESTAURANT DINING PEOPLE 1",
               "Is Initialized",
               "!! TIMESERIES NAME: Zone Thermal Comfort Fanger Model PPD AND key_value: BUILDING STORY 1 THERMALZONE FULLSERVICERESTAURANT KITCHEN PEOPLE 1",
               "Is Initialized",
               "timeseries Zone Thermal Comfort Fanger Model PPD: hours out of bounds: 87.0",
               "TIMESERIES: Net Electric Energy",
               "KEY VALUES: []",
               "!! TIMESERIES NAME: Net Electric Energy AND key_value: ",
               "Is NOT Initialized",
               "TIMESERIES: Electricity:Facility Power",
               "KEY VALUES: []",
               "!! TIMESERIES NAME: Electricity:Facility Power AND key_value: ",
               "Is NOT Initialized",
               "timeseries_name: Electricity:Facility Power, key: Electricity:Facility",
               "TIMESERIES: ElectricityProduced:Facility Power",
               "KEY VALUES: []",
               "!! TIMESERIES NAME: ElectricityProduced:Facility Power AND key_value: ",
               "Is NOT Initialized",
               "timeseries_name: ElectricityProduced:Facility Power, key: ElectricityProduced:Facility",
               "TIMESERIES: Electricity:Facility Apparent Power",
               "KEY VALUES: []",
               "!! TIMESERIES NAME: Electricity:Facility Apparent Power AND key_value: ",
               "Is NOT Initialized",
               "timeseries_name: Electricity:Facility Apparent Power, key: Electricity:Facility",
               "TIMESERIES: ElectricityProduced:Facility Apparent Power",
               "KEY VALUES: []",
               "!! TIMESERIES NAME: ElectricityProduced:Facility Apparent Power AND key_value: ",
               "Is NOT Initialized",
               "timeseries_name: ElectricityProduced:Facility Apparent Power, key: ElectricityProduced:Facility",
               "TIMESERIES: Net Power",
               "KEY VALUES: []",
               "!! TIMESERIES NAME: Net Power AND key_value: ",
               "Is NOT Initialized",
               "Power calc",
               "TIMESERIES: Net Apparent Power",
               "KEY VALUES: []",
               "!! TIMESERIES NAME: Net Apparent Power AND key_value: ",
               "Is NOT Initialized",
               "TIMESERIES: Ice Thermal Storage End Fraction",
               "KEY VALUES: []",
               "!! TIMESERIES NAME: Ice Thermal Storage End Fraction AND key_value: ",
               "Is NOT Initialized",
               "SETTING UP NEW ARRAY FOR: Ice Thermal Storage End Fraction",
               "TIMESERIES: Cooling Coil Ice Thermal Storage End Fraction",
               "KEY VALUES: []",
               "!! TIMESERIES NAME: Cooling Coil Ice Thermal Storage End Fraction AND key_value: ",
               "Is NOT Initialized",
               "SETTING UP NEW ARRAY FOR: Cooling Coil Ice Thermal Storage End Fraction",
               "new final_timeseries_names size: 87"
            ],
            "step_result" : "Success",
            "step_values" :
            [
               {
                  "name" : "feature_id",
                  "value" : "2"
               },
               {
                  "name" : "feature_name",
                  "value" : "Restaurant 1"
               },
               {
                  "name" : "feature_type",
                  "value" : "Building"
               },
               {
                  "name" : "feature_location",
                  "value" : "[-78.8502595171082, 42.81830466479382]"
               },
               {
                  "name" : "reporting_frequency",
                  "value" : "Timestep"
               }
            ],
            "step_warnings" :
            [
               "Query failed for Life-Cycle Cost Report and TableName='Present Value for Recurring, Nonrecurring and Energy Costs (Before Tax)' AND RowName='LCC_MAT - BUILDING - LIFE CYCLE COSTS' AND ColumnName='Cost'",
               "Query failed for Packaged Ice Thermal Storage Capacity",
               "Query failed for Ice Thermal Storage Capacity",
               "Query failed for EnergyMeters and TableName='Annual and Peak Values - Other' AND RowName='Propane:Facility' AND ColumnName='Annual Value'",
               "Query failed for EnergyMeters and TableName='Annual and Peak Values - Other' AND RowName='FuelOilNo2:Facility' AND ColumnName='Annual Value'",
               "Query failed for AnnualBuildingUtilityPerformanceSummary and TableName='End Uses' AND RowName='Total End Uses' AND ColumnName='Additional Fuel'",
               "Query failed for EnergyMeters and TableName='Annual and Peak Values - Other' AND RowName='Heating:Propane' AND ColumnName='Annual Value'",
               "Query failed for EnergyMeters and TableName='Annual and Peak Values - Other' AND RowName='Cooling:Propane' AND ColumnName='Annual Value'",
               "Query failed for EnergyMeters and TableName='Annual and Peak Values - Other' AND RowName='InteriorLights:Propane' AND ColumnName='Annual Value'",
               "Query failed for EnergyMeters and TableName='Annual and Peak Values - Other' AND RowName='ExteriorLights:Propane' AND ColumnName='Annual Value'",
               "Query failed for EnergyMeters and TableName='Annual and Peak Values - Other' AND RowName='InteriorEquipment:Propane' AND ColumnName='Annual Value'",
               "Query failed for EnergyMeters and TableName='Annual and Peak Values - Other' AND RowName='ExteriorEquipment:Propane' AND ColumnName='Annual Value'",
               "Query failed for EnergyMeters and TableName='Annual and Peak Values - Other' AND RowName='Fans:Propane' AND ColumnName='Annual Value'",
               "Query failed for EnergyMeters and TableName='Annual and Peak Values - Other' AND RowName='Pumps:Propane' AND ColumnName='Annual Value'",
               "Query failed for EnergyMeters and TableName='Annual and Peak Values - Other' AND RowName='HeatRejection:Propane' AND ColumnName='Annual Value'",
               "Query failed for EnergyMeters and TableName='Annual and Peak Values - Other' AND RowName='Humidifier:Propane' AND ColumnName='Annual Value'",
               "Query failed for EnergyMeters and TableName='Annual and Peak Values - Other' AND RowName='HeatRecovery:Propane' AND ColumnName='Annual Value'",
               "Query failed for EnergyMeters and TableName='Annual and Peak Values - Other' AND RowName='WaterSystems:Propane' AND ColumnName='Annual Value'",
               "Query failed for EnergyMeters and TableName='Annual and Peak Values - Other' AND RowName='Refrigeration:Propane' AND ColumnName='Annual Value'",
               "Query failed for EnergyMeters and TableName='Annual and Peak Values - Other' AND RowName='Generators:Propane' AND ColumnName='Annual Value'",
               "Query failed for EnergyMeters and TableName='Annual and Peak Values - Other' AND RowName='Heating:FuelOil#2' AND ColumnName='Annual Value'",
               "Query failed for EnergyMeters and TableName='Annual and Peak Values - Other' AND RowName='Cooling:FuelOil#2' AND ColumnName='Annual Value'",
               "Query failed for EnergyMeters and TableName='Annual and Peak Values - Other' AND RowName='InteriorLights:FuelOil#2' AND ColumnName='Annual Value'",
               "Query failed for EnergyMeters and TableName='Annual and Peak Values - Other' AND RowName='ExteriorLights:FuelOil#2' AND ColumnName='Annual Value'",
               "Query failed for EnergyMeters and TableName='Annual and Peak Values - Other' AND RowName='InteriorEquipment:FuelOil#2' AND ColumnName='Annual Value'",
               "Query failed for EnergyMeters and TableName='Annual and Peak Values - Other' AND RowName='ExteriorEquipment:FuelOil#2' AND ColumnName='Annual Value'",
               "Query failed for EnergyMeters and TableName='Annual and Peak Values - Other' AND RowName='Fans:FuelOil#2' AND ColumnName='Annual Value'",
               "Query failed for EnergyMeters and TableName='Annual and Peak Values - Other' AND RowName='Pumps:FuelOil#2' AND ColumnName='Annual Value'",
               "Query failed for EnergyMeters and TableName='Annual and Peak Values - Other' AND RowName='HeatRejection:FuelOil#2' AND ColumnName='Annual Value'",
               "Query failed for EnergyMeters and TableName='Annual and Peak Values - Other' AND RowName='Humidifier:FuelOil#2' AND ColumnName='Annual Value'",
               "Query failed for EnergyMeters and TableName='Annual and Peak Values - Other' AND RowName='HeatRecovery:FuelOil#2' AND ColumnName='Annual Value'",
               "Query failed for EnergyMeters and TableName='Annual and Peak Values - Other' AND RowName='WaterSystems:FuelOil#2' AND ColumnName='Annual Value'",
               "Query failed for EnergyMeters and TableName='Annual and Peak Values - Other' AND RowName='Refrigeration:FuelOil#2' AND ColumnName='Annual Value'",
               "Query failed for EnergyMeters and TableName='Annual and Peak Values - Other' AND RowName='Generators:FuelOil#2' AND ColumnName='Annual Value'",
               "Query failed for AnnualBuildingUtilityPerformanceSummary and TableName='End Uses By Subcategory' AND RowName='Exterior Equipment:Electric Vehicles' AND ColumnName='Electricity'",
               "Query failed for Economics Results Summary Report and TableName='Annual Cost' AND RowName='Cost' AND ColumnName='Total'",
               "Query failed for Economics Results Summary Report and TableName='Annual Cost' AND RowName='Cost' AND ColumnName='Electric'",
               "Query failed for Economics Results Summary Report and TableName='Annual Cost' AND RowName='Cost' AND ColumnName='Gas'"
            ]
         }
      }
   ],
   "updated_at" : "20210302T164935Z",
   "weather_file" : null
}
