Program Version,EnergyPlus, Version 9.4.0-998c4b761e, YMD=2021.03.02 09:47
! <Version>, Version ID
 Version, 9.4
! <Timesteps per Hour>, #TimeSteps, Minutes per TimeStep {minutes}
 Timesteps per Hour,  1, 60
! <System Convergence Limits>, Minimum System TimeStep {minutes}, Max HVAC Iterations, Minimum Plant Iterations, Maximum Plant Iterations
 System Convergence Limits, 1, 20, 2, 8
! <Simulation Control>, Do Zone Sizing, Do System Sizing, Do Plant Sizing, Do Design Days, Do Weather Simulation, Do HVAC Sizing Simulation
 Simulation Control, Yes, Yes, Yes, No, Yes, Yes
! <Performance Precision Tradeoffs>, Use Coil Direct Simulation, Zone Radiant Exchange Algorithm, Override Mode, Number of Timestep In Hour, Force Euler Method, Minimum Number of Warmup Days, Force Suppress All Begin Environment Resets, Minimum System Timestep, MaxZoneTempDiff, MaxAllowedDelTemp
 Performance Precision Tradeoffs, No, ScriptF, Normal, 1, No, 1, No, 1.0, 0.300, 2.0000E-003
! <Output Reporting Tolerances>, Tolerance for Time Heating Setpoint Not Met, Tolerance for Zone Cooling Setpoint Not Met Time
 Output Reporting Tolerances, 0.556, 0.556,
! <Site:GroundTemperature:BuildingSurface>,Jan{C},Feb{C},Mar{C},Apr{C},May{C},Jun{C},Jul{C},Aug{C},Sep{C},Oct{C},Nov{C},Dec{C}
 Site:GroundTemperature:BuildingSurface,  18.00,  18.00,  18.00,  18.00,  18.00,  18.00,  18.00,  18.00,  18.00,  18.00,  18.00,  18.00
! <Site:GroundTemperature:FCfactorMethod>,Jan{C},Feb{C},Mar{C},Apr{C},May{C},Jun{C},Jul{C},Aug{C},Sep{C},Oct{C},Nov{C},Dec{C}
 Site:GroundTemperature:FCfactorMethod,   7.40,   0.00,  -7.60, -12.60,  -7.70,   0.30,   7.00,  14.20,  19.20,  20.90,  20.00,  15.40
! <Site:GroundTemperature:Shallow>,Jan{C},Feb{C},Mar{C},Apr{C},May{C},Jun{C},Jul{C},Aug{C},Sep{C},Oct{C},Nov{C},Dec{C}
 Site:GroundTemperature:Shallow,  13.00,  13.00,  13.00,  13.00,  13.00,  13.00,  13.00,  13.00,  13.00,  13.00,  13.00,  13.00
! <Site:GroundTemperature:Deep>,Jan{C},Feb{C},Mar{C},Apr{C},May{C},Jun{C},Jul{C},Aug{C},Sep{C},Oct{C},Nov{C},Dec{C}
 Site:GroundTemperature:Deep,  16.00,  16.00,  16.00,  16.00,  16.00,  16.00,  16.00,  16.00,  16.00,  16.00,  16.00,  16.00
! <Site:GroundReflectance>,Jan{dimensionless},Feb{dimensionless},Mar{dimensionless},Apr{dimensionless},May{dimensionless},Jun{dimensionless},Jul{dimensionless},Aug{dimensionless},Sep{dimensionless},Oct{dimensionless},Nov{dimensionless},Dec{dimensionless}
 Site:GroundReflectance,  0.20,  0.20,  0.20,  0.20,  0.20,  0.20,  0.20,  0.20,  0.20,  0.20,  0.20,  0.20
! <Site:GroundReflectance:SnowModifier>, Normal, Daylighting {dimensionless}
 Site:GroundReflectance:SnowModifier,   1.000,   1.000
! <Site:GroundReflectance:Snow>,Jan{dimensionless},Feb{dimensionless},Mar{dimensionless},Apr{dimensionless},May{dimensionless},Jun{dimensionless},Jul{dimensionless},Aug{dimensionless},Sep{dimensionless},Oct{dimensionless},Nov{dimensionless},Dec{dimensionless}
 Site:GroundReflectance:Snow,  0.20,  0.20,  0.20,  0.20,  0.20,  0.20,  0.20,  0.20,  0.20,  0.20,  0.20,  0.20
! <Site:GroundReflectance:Snow:Daylighting>,Jan{dimensionless},Feb{dimensionless},Mar{dimensionless},Apr{dimensionless},May{dimensionless},Jun{dimensionless},Jul{dimensionless},Aug{dimensionless},Sep{dimensionless},Oct{dimensionless},Nov{dimensionless},Dec{dimensionless}
 Site:GroundReflectance:Snow:Daylighting,  0.20,  0.20,  0.20,  0.20,  0.20,  0.20,  0.20,  0.20,  0.20,  0.20,  0.20,  0.20
! <Environment:Weather Station>,Wind Sensor Height Above Ground {m},Wind Speed Profile Exponent {},Wind Speed Profile Boundary Layer Thickness {m},Air Temperature Sensor Height Above Ground {m},Wind Speed Modifier Coefficient-Internal,Temperature Modifier Coefficient-Internal
Environment:Weather Station,10.000,0.140,270.000,1.500,1.586,9.750E-003
! <Site:Location>, Location Name, Latitude {N+/S- Deg}, Longitude {E+/W- Deg},  Time Zone Number {GMT+/-}, Elevation {m},  Standard Pressure at Elevation {Pa}, Standard RhoAir at Elevation
Site:Location,Buffalo Niagara Intl Ap NY USA TMY3 WMO#=725280,42.93,-78.73,-5.00,215.00,98769,1.1739
! <Site Water Mains Temperature Information>,Calculation Method{},Water Mains Temperature Schedule Name{},Annual Average Outdoor Air Temperature{C},Maximum Difference In Monthly Average Outdoor Air Temperatures{deltaC},Fixed Default Water Mains Temperature{C}
Site Water Mains Temperature Information,Correlation,NA,8.97,26.20,NA
! <Building Information>, Building Name,North Axis {deg},Terrain,  Loads Convergence Tolerance Value,Temperature Convergence Tolerance Value,  Solar Distribution,Maximum Number of Warmup Days,Minimum Number of Warmup Days
 Building Information,District Office 1,0.000,City,4.00000E-002,0.40000,FullExterior,25,1
! <Inside Convection Algorithm>, Algorithm {Simple | TARP | CeilingDiffuser | AdaptiveConvectionAlgorithm}
Inside Convection Algorithm,TARP
! <Outside Convection Algorithm>, Algorithm {SimpleCombined | TARP | MoWitt | DOE-2 | AdaptiveConvectionAlgorithm}
Outside Convection Algorithm,DOE-2
! <Sky Radiance Distribution>, Value {Anisotropic}
Sky Radiance Distribution,Anisotropic
! <Zone Air Solution Algorithm>, Value {ThirdOrderBackwardDifference | AnalyticalSolution | EulerMethod}
 Zone Air Solution Algorithm, ThirdOrderBackwardDifference
! <Zone Air Carbon Dioxide Balance Simulation>, Simulation {Yes/No}, Carbon Dioxide Concentration
 Zone Air Carbon Dioxide Balance Simulation, No,N/A
! <Zone Air Generic Contaminant Balance Simulation>, Simulation {Yes/No}, Generic Contaminant Concentration
 Zone Air Generic Contaminant Balance Simulation, No,N/A
! <Zone Air Mass Flow Balance Simulation>, Enforce Mass Balance, Adjust Zone Mixing, Adjust Zone Infiltration {AddInfiltration | AdjustInfiltration | None}, Infiltration Zones {MixingSourceZonesOnly | AllZones}
 Zone Air Mass Flow Balance Simulation, No,N/A,N/A,N/A
! <HVACSystemRootFindingAlgorithm>, Value {RegulaFalsi | Bisection | BisectionThenRegulaFalsi | RegulaFalsiThenBisection}
 HVACSystemRootFindingAlgorithm, RegulaFalsi
! <Environment:Site Atmospheric Variation>,Wind Speed Profile Exponent {},Wind Speed Profile Boundary Layer Thickness {m},Air Temperature Gradient Coefficient {K/m}
Environment:Site Atmospheric Variation,0.330,460.000,6.500000E-003
! <Surface Geometry>,Starting Corner,Vertex Input Direction,Coordinate System,Daylight Reference Point Coordinate System,Rectangular (Simple) Surface Coordinate System
 Surface Geometry,UpperLeftCorner,Counterclockwise,RelativeCoordinateSystem,RelativeCoordinateSystem,RelativeToZoneOrigin
! <Surface Heat Transfer Algorithm>, Value {CTF - ConductionTransferFunction | EMPD - MoisturePenetrationDepthConductionTransferFunction | CondFD - ConductionFiniteDifference | HAMT - CombinedHeatAndMoistureFiniteElement} - Description,Inside Surface Max Temperature Limit{C}, Surface Convection Coefficient Lower Limit {W/m2-K}, Surface Convection Coefficient Upper Limit {W/m2-K}
Surface Heat Transfer Algorithm, CTF - ConductionTransferFunction,200,0.10,1000.0
! <Shading Summary>, Number of Fixed Detached Shades, Number of Building Detached Shades, Number of Attached Shades
 Shading Summary,0,36,0
! <Zone Summary>, Number of Zones, Number of Zone Surfaces, Number of SubSurfaces
 Zone Summary,5,84,4
! <Zone Information>,Zone Name,North Axis {deg},Origin X-Coordinate {m},Origin Y-Coordinate {m},Origin Z-Coordinate {m},Centroid X-Coordinate {m},Centroid Y-Coordinate {m},Centroid Z-Coordinate {m},Type,Zone Multiplier,Zone List Multiplier,Minimum X {m},Maximum X {m},Minimum Y {m},Maximum Y {m},Minimum Z {m},Maximum Z {m},Ceiling Height {m},Volume {m3},Zone Inside Convection Algorithm {Simple-Detailed-CeilingDiffuser-TrombeWall},Zone Outside Convection Algorithm {Simple-Detailed-Tarp-MoWitt-DOE-2-BLAST}, Floor Area {m2},Exterior Gross Wall Area {m2},Exterior Net Wall Area {m2},Exterior Window Area {m2}, Number of Surfaces, Number of SubSurfaces, Number of Shading SubSurfaces,  Part of Total Building Area
 Zone Information, BUILDING STORY 1 THERMALZONE,0.0,0.00,0.00,0.00,19.92,16.71,1.80,1,1,1,3.57,36.27,3.57,29.85,0.00,3.60,3.60,1876.30,TARP,DOE-2,521.19,0.00,0.00,0.00,6,0,0,Yes
 Zone Information, BUILDING STORY 1 THERMALZONE 1,0.0,0.00,0.00,0.00,5.00,11.82,1.80,1,1,1,-8.07E-011,9.34,4.12E-006,22.84,0.00,3.60,3.60,216.11,TARP,DOE-2,60.03,86.59,60.61,25.98,6,1,0,Yes
 Zone Information, BUILDING STORY 1 THERMALZONE 2,0.0,0.00,0.00,0.00,16.57,26.87,1.80,1,1,1,-8.07E-011,32.30,21.04,33.42,0.00,3.60,3.60,317.30,TARP,DOE-2,88.14,122.36,85.66,36.71,6,1,0,Yes
 Zone Information, BUILDING STORY 1 THERMALZONE 3,0.0,0.00,0.00,0.00,34.84,21.60,1.80,1,1,1,30.50,39.84,10.58,33.42,0.00,3.60,3.60,216.10,TARP,DOE-2,60.03,86.59,60.61,25.98,6,1,0,Yes
 Zone Information, BUILDING STORY 1 THERMALZONE 4,0.0,0.00,0.00,0.00,23.27,6.55,1.80,1,1,1,7.54,39.84,4.12E-006,12.38,0.00,3.60,3.60,317.30,TARP,DOE-2,88.14,122.37,85.66,36.71,6,1,0,Yes
! <Zone Internal Gains Nominal>,Zone Name, Floor Area {m2},# Occupants,Area per Occupant {m2/person},Occupant per Area {person/m2},Interior Lighting {W/m2},Electric Load {W/m2},Gas Load {W/m2},Other Load {W/m2},Hot Water Eq {W/m2},Steam Equipment {W/m2},Sum Loads per Area {W/m2},Outdoor Controlled Baseboard Heat
 Zone Internal Gains Nominal, BUILDING STORY 1 THERMALZONE,521.19,31.4,16.590,6.028E-002,8.826,6.781,0.000,0.000,0.000,0.000,15.608,No
 Zone Internal Gains Nominal, BUILDING STORY 1 THERMALZONE 1,60.03,3.6,16.590,6.028E-002,8.826,6.781,0.000,0.000,0.000,0.000,15.608,No
 Zone Internal Gains Nominal, BUILDING STORY 1 THERMALZONE 2,88.14,5.3,16.590,6.028E-002,8.826,6.781,0.000,0.000,0.000,0.000,15.608,No
 Zone Internal Gains Nominal, BUILDING STORY 1 THERMALZONE 3,60.03,3.6,16.590,6.028E-002,8.826,6.781,0.000,0.000,0.000,0.000,15.608,No
 Zone Internal Gains Nominal, BUILDING STORY 1 THERMALZONE 4,88.14,5.3,16.590,6.028E-002,8.826,6.781,0.000,0.000,0.000,0.000,15.608,No
! <People Internal Gains Nominal>,Name,Schedule Name,Zone Name,Zone Floor Area {m2},# Zone Occupants,Number of People {},People/Floor Area {person/m2},Floor Area per person {m2/person},Fraction Radiant,Fraction Convected,Sensible Fraction Calculation,Activity level,ASHRAE 55 Warnings,Carbon Dioxide Generation Rate,Nominal Minimum Number of People,Nominal Maximum Number of People,MRT Calculation Type,Work Efficiency, Clothing Insulation Calculation Method,Clothing Insulation Calculation Method Schedule,Clothing,Air Velocity,Fanger Calculation,Pierce Calculation,KSU Calculation
 People Internal Gains Nominal, BUILDING STORY 1 THERMALZONE OFFICE WHOLEBUILDING - SM OFFICE PEOPLE 1,OFFICESMALL BLDG_OCC_SCH,BUILDING STORY 1 THERMALZONE,521.19,31.4,31.4,6.028E-002,16.590,0.300,0.700,AutoCalculate,OFFICESMALL ACTIVITY_SCH,Yes,3.8200E-008,0,31,Zone Averaged,WORK EFFICIENCY SCHEDULE,Clothing Insulation Schedule,N/A,CLOTHING SCHEDULE,AIR VELOCITY SCHEDULE,Yes,No,No
 People Internal Gains Nominal, BUILDING STORY 1 THERMALZONE 1 OFFICE WHOLEBUILDING - SM OFFICE PEOPLE 1,OFFICESMALL BLDG_OCC_SCH,BUILDING STORY 1 THERMALZONE 1,60.03,3.6,3.6,6.028E-002,16.590,0.300,0.700,AutoCalculate,OFFICESMALL ACTIVITY_SCH,Yes,3.8200E-008,0,4,Zone Averaged,WORK EFFICIENCY SCHEDULE,Clothing Insulation Schedule,N/A,CLOTHING SCHEDULE,AIR VELOCITY SCHEDULE,Yes,No,No
 People Internal Gains Nominal, BUILDING STORY 1 THERMALZONE 2 OFFICE WHOLEBUILDING - SM OFFICE PEOPLE 1,OFFICESMALL BLDG_OCC_SCH,BUILDING STORY 1 THERMALZONE 2,88.14,5.3,5.3,6.028E-002,16.590,0.300,0.700,AutoCalculate,OFFICESMALL ACTIVITY_SCH,Yes,3.8200E-008,0,5,Zone Averaged,WORK EFFICIENCY SCHEDULE,Clothing Insulation Schedule,N/A,CLOTHING SCHEDULE,AIR VELOCITY SCHEDULE,Yes,No,No
 People Internal Gains Nominal, BUILDING STORY 1 THERMALZONE 3 OFFICE WHOLEBUILDING - SM OFFICE PEOPLE 1,OFFICESMALL BLDG_OCC_SCH,BUILDING STORY 1 THERMALZONE 3,60.03,3.6,3.6,6.028E-002,16.590,0.300,0.700,AutoCalculate,OFFICESMALL ACTIVITY_SCH,Yes,3.8200E-008,0,4,Zone Averaged,WORK EFFICIENCY SCHEDULE,Clothing Insulation Schedule,N/A,CLOTHING SCHEDULE,AIR VELOCITY SCHEDULE,Yes,No,No
 People Internal Gains Nominal, BUILDING STORY 1 THERMALZONE 4 OFFICE WHOLEBUILDING - SM OFFICE PEOPLE 1,OFFICESMALL BLDG_OCC_SCH,BUILDING STORY 1 THERMALZONE 4,88.14,5.3,5.3,6.028E-002,16.590,0.300,0.700,AutoCalculate,OFFICESMALL ACTIVITY_SCH,Yes,3.8200E-008,0,5,Zone Averaged,WORK EFFICIENCY SCHEDULE,Clothing Insulation Schedule,N/A,CLOTHING SCHEDULE,AIR VELOCITY SCHEDULE,Yes,No,No
! <Lights Internal Gains Nominal>,Name,Schedule Name,Zone Name,Zone Floor Area {m2},# Zone Occupants,Lighting Level {W},Lights/Floor Area {W/m2},Lights per person {W/person},Fraction Return Air,Fraction Radiant,Fraction Short Wave,Fraction Convected,Fraction Replaceable,End-Use Category,Nominal Minimum Lighting Level {W},Nominal Maximum Lighting Level {W}
 Lights Internal Gains Nominal, BUILDING STORY 1 THERMALZONE OFFICE WHOLEBUILDING - SM OFFICE LIGHTS 1,OFFICESMALL BLDG_LIGHT_SCH_2013,BUILDING STORY 1 THERMALZONE,521.19,31.4,4600.279,8.826,146.429,0.000,0.700,0.200,0.100,1.000,General,0.000,4600.279
 Lights Internal Gains Nominal, BUILDING STORY 1 THERMALZONE 1 OFFICE WHOLEBUILDING - SM OFFICE LIGHTS 1,OFFICESMALL BLDG_LIGHT_SCH_2013,BUILDING STORY 1 THERMALZONE 1,60.03,3.6,529.842,8.826,146.429,0.000,0.700,0.200,0.100,1.000,General,0.000,529.842
 Lights Internal Gains Nominal, BUILDING STORY 1 THERMALZONE 2 OFFICE WHOLEBUILDING - SM OFFICE LIGHTS 1,OFFICESMALL BLDG_LIGHT_SCH_2013,BUILDING STORY 1 THERMALZONE 2,88.14,5.3,777.951,8.826,146.429,0.000,0.700,0.200,0.100,1.000,General,0.000,777.951
 Lights Internal Gains Nominal, BUILDING STORY 1 THERMALZONE 3 OFFICE WHOLEBUILDING - SM OFFICE LIGHTS 1,OFFICESMALL BLDG_LIGHT_SCH_2013,BUILDING STORY 1 THERMALZONE 3,60.03,3.6,529.842,8.826,146.429,0.000,0.700,0.200,0.100,1.000,General,0.000,529.842
 Lights Internal Gains Nominal, BUILDING STORY 1 THERMALZONE 4 OFFICE WHOLEBUILDING - SM OFFICE LIGHTS 1,OFFICESMALL BLDG_LIGHT_SCH_2013,BUILDING STORY 1 THERMALZONE 4,88.14,5.3,777.951,8.826,146.429,0.000,0.700,0.200,0.100,1.000,General,0.000,777.951
! <ElectricEquipment Internal Gains Nominal>,Name,Schedule Name,Zone Name,Zone Floor Area {m2},# Zone Occupants,Equipment Level {W},Equipment/Floor Area {W/m2},Equipment per person {W/person},Fraction Latent,Fraction Radiant,Fraction Lost,Fraction Convected,End-Use SubCategory,Nominal Minimum Equipment Level {W},Nominal Maximum Equipment Level {W}
 ElectricEquipment Internal Gains Nominal, BUILDING STORY 1 THERMALZONE OFFICE WHOLEBUILDING - SM OFFICE ELEC EQUIP 1,OFFICESMALL BLDG_EQUIP_SCH_2013,BUILDING STORY 1 THERMALZONE,521.19,31.4,3534.361,6.781,112.500,0.000,0.000,0.000,1.000,General,0.000,3534.361
 ElectricEquipment Internal Gains Nominal, BUILDING STORY 1 THERMALZONE 1 OFFICE WHOLEBUILDING - SM OFFICE ELEC EQUIP 1,OFFICESMALL BLDG_EQUIP_SCH_2013,BUILDING STORY 1 THERMALZONE 1,60.03,3.6,407.074,6.781,112.500,0.000,0.000,0.000,1.000,General,0.000,407.074
 ElectricEquipment Internal Gains Nominal, BUILDING STORY 1 THERMALZONE 2 OFFICE WHOLEBUILDING - SM OFFICE ELEC EQUIP 1,OFFICESMALL BLDG_EQUIP_SCH_2013,BUILDING STORY 1 THERMALZONE 2,88.14,5.3,597.694,6.781,112.500,0.000,0.000,0.000,1.000,General,0.000,597.694
 ElectricEquipment Internal Gains Nominal, BUILDING STORY 1 THERMALZONE 3 OFFICE WHOLEBUILDING - SM OFFICE ELEC EQUIP 1,OFFICESMALL BLDG_EQUIP_SCH_2013,BUILDING STORY 1 THERMALZONE 3,60.03,3.6,407.073,6.781,112.500,0.000,0.000,0.000,1.000,General,0.000,407.073
 ElectricEquipment Internal Gains Nominal, BUILDING STORY 1 THERMALZONE 4 OFFICE WHOLEBUILDING - SM OFFICE ELEC EQUIP 1,OFFICESMALL BLDG_EQUIP_SCH_2013,BUILDING STORY 1 THERMALZONE 4,88.14,5.3,597.694,6.781,112.500,0.000,0.000,0.000,1.000,General,0.000,597.694
! <Shadowing/Sun Position Calculations Annual Simulations>, Shading Calculation Method, Shading Calculation Update Frequency Method, Shading Calculation Update Frequency {days}, Maximum Figures in Shadow Overlap Calculations {}, Polygon Clipping Algorithm, Pixel Counting Resolution, Sky Diffuse Modeling Algorithm, Output External Shading Calculation Results, Disable Self-Shading Within Shading Zone Groups, Disable Self-Shading From Shading Zone Groups to Other Zones
Shadowing/Sun Position Calculations Annual Simulations,PolygonClipping,Periodic,20,15000,SutherlandHodgman,512,SimpleSkyDiffuseModeling,No,No,No
! <Zone/Window Adjacency Daylighting Counts>, Zone Name, Number of Exterior Windows, Number of Exterior Windows in Adjacent Zones
Zone/Window Adjacency Daylighting Counts, BUILDING STORY 1 THERMALZONE 1,1,0
Zone/Window Adjacency Daylighting Counts, BUILDING STORY 1 THERMALZONE 2,1,0
Zone/Window Adjacency Daylighting Counts, BUILDING STORY 1 THERMALZONE 3,1,0
Zone/Window Adjacency Daylighting Counts, BUILDING STORY 1 THERMALZONE 4,1,0
! <Zone/Window Adjacency Daylighting Matrix>, Zone Name, Number of Adjacent Zones with Windows,Adjacent Zone Names - 1st 100 (max)
Zone/Window Adjacency Daylighting Matrix, BUILDING STORY 1 THERMALZONE 1,0
Zone/Window Adjacency Daylighting Matrix, BUILDING STORY 1 THERMALZONE 2,0
Zone/Window Adjacency Daylighting Matrix, BUILDING STORY 1 THERMALZONE 3,0
Zone/Window Adjacency Daylighting Matrix, BUILDING STORY 1 THERMALZONE 4,0
! <Water Heater Information>,Type,Name,Volume {m3},Maximum Capacity {W},Standard Rated Recovery Efficiency, Standard Rated Energy Factor
! <ZoneInfiltration Airflow Stats Nominal>,Name,Schedule Name,Zone Name, Zone Floor Area {m2}, # Zone Occupants,Design Volume Flow Rate {m3/s},Volume Flow Rate/Floor Area {m3/s-m2},Volume Flow Rate/Exterior Surface Area {m3/s-m2},ACH - Air Changes per Hour,Equation A - Constant Term Coefficient {},Equation B - Temperature Term Coefficient {1/C},Equation C - Velocity Term Coefficient {s/m}, Equation D - Velocity Squared Term Coefficient {s2/m2}
 ZoneInfiltration Airflow Stats Nominal, BUILDING STORY 1 THERMALZONE OFFICE WHOLEBUILDING - SM OFFICE A  - STORY GROUND INFILTRATION,ALWAYS ON DISCRETE,BUILDING STORY 1 THERMALZONE,521.19,31.4,1.995E-002,3.828E-005,3.828E-005,3.828E-002,0.000,0.000,0.224,0.000
 ZoneInfiltration Airflow Stats Nominal, BUILDING STORY 1 THERMALZONE 1 OFFICE WHOLEBUILDING - SM OFFICE A  - STORY GROUND INFILTRATION,ALWAYS ON DISCRETE,BUILDING STORY 1 THERMALZONE 1,60.03,3.6,5.613E-003,9.350E-005,3.828E-005,9.350E-002,0.000,0.000,0.224,0.000
 ZoneInfiltration Airflow Stats Nominal, BUILDING STORY 1 THERMALZONE 2 OFFICE WHOLEBUILDING - SM OFFICE A  - STORY GROUND INFILTRATION,ALWAYS ON DISCRETE,BUILDING STORY 1 THERMALZONE 2,88.14,5.3,8.058E-003,9.143E-005,3.828E-005,9.143E-002,0.000,0.000,0.224,0.000
 ZoneInfiltration Airflow Stats Nominal, BUILDING STORY 1 THERMALZONE 3 OFFICE WHOLEBUILDING - SM OFFICE A  - STORY GROUND INFILTRATION,ALWAYS ON DISCRETE,BUILDING STORY 1 THERMALZONE 3,60.03,3.6,5.613E-003,9.350E-005,3.828E-005,9.350E-002,0.000,0.000,0.224,0.000
 ZoneInfiltration Airflow Stats Nominal, BUILDING STORY 1 THERMALZONE 4 OFFICE WHOLEBUILDING - SM OFFICE A  - STORY GROUND INFILTRATION,ALWAYS ON DISCRETE,BUILDING STORY 1 THERMALZONE 4,88.14,5.3,8.058E-003,9.143E-005,3.828E-005,9.143E-002,0.000,0.000,0.224,0.000
 ZoneInfiltration Airflow Stats Nominal, BUILDING STORY 1 THERMALZONE OFFICE WHOLEBUILDING - SM OFFICE A END_A - STORY GROUND INFILTRATION,ALWAYS ON DISCRETE,BUILDING STORY 1 THERMALZONE,521.19,31.4,7.049E-003,1.352E-005,1.352E-005,1.352E-002,0.000,0.000,0.224,0.000
 ZoneInfiltration Airflow Stats Nominal, BUILDING STORY 1 THERMALZONE 1 OFFICE WHOLEBUILDING - SM OFFICE A END_A - STORY GROUND INFILTRATION,ALWAYS ON DISCRETE,BUILDING STORY 1 THERMALZONE 1,60.03,3.6,1.983E-003,3.303E-005,1.352E-005,3.303E-002,0.000,0.000,0.224,0.000
 ZoneInfiltration Airflow Stats Nominal, BUILDING STORY 1 THERMALZONE 2 OFFICE WHOLEBUILDING - SM OFFICE A END_A - STORY GROUND INFILTRATION,ALWAYS ON DISCRETE,BUILDING STORY 1 THERMALZONE 2,88.14,5.3,2.847E-003,3.230E-005,1.352E-005,3.230E-002,0.000,0.000,0.224,0.000
 ZoneInfiltration Airflow Stats Nominal, BUILDING STORY 1 THERMALZONE 3 OFFICE WHOLEBUILDING - SM OFFICE A END_A - STORY GROUND INFILTRATION,ALWAYS ON DISCRETE,BUILDING STORY 1 THERMALZONE 3,60.03,3.6,1.983E-003,3.303E-005,1.352E-005,3.303E-002,0.000,0.000,0.224,0.000
 ZoneInfiltration Airflow Stats Nominal, BUILDING STORY 1 THERMALZONE 4 OFFICE WHOLEBUILDING - SM OFFICE A END_A - STORY GROUND INFILTRATION,ALWAYS ON DISCRETE,BUILDING STORY 1 THERMALZONE 4,88.14,5.3,2.847E-003,3.230E-005,1.352E-005,3.230E-002,0.000,0.000,0.224,0.000
 ZoneInfiltration Airflow Stats Nominal, BUILDING STORY 1 THERMALZONE OFFICE WHOLEBUILDING - SM OFFICE A END_B - STORY GROUND INFILTRATION,ALWAYS ON DISCRETE,BUILDING STORY 1 THERMALZONE,521.19,31.4,7.049E-003,1.352E-005,1.352E-005,1.352E-002,0.000,0.000,0.224,0.000
 ZoneInfiltration Airflow Stats Nominal, BUILDING STORY 1 THERMALZONE 1 OFFICE WHOLEBUILDING - SM OFFICE A END_B - STORY GROUND INFILTRATION,ALWAYS ON DISCRETE,BUILDING STORY 1 THERMALZONE 1,60.03,3.6,1.983E-003,3.303E-005,1.352E-005,3.303E-002,0.000,0.000,0.224,0.000
 ZoneInfiltration Airflow Stats Nominal, BUILDING STORY 1 THERMALZONE 2 OFFICE WHOLEBUILDING - SM OFFICE A END_B - STORY GROUND INFILTRATION,ALWAYS ON DISCRETE,BUILDING STORY 1 THERMALZONE 2,88.14,5.3,2.847E-003,3.230E-005,1.352E-005,3.230E-002,0.000,0.000,0.224,0.000
 ZoneInfiltration Airflow Stats Nominal, BUILDING STORY 1 THERMALZONE 3 OFFICE WHOLEBUILDING - SM OFFICE A END_B - STORY GROUND INFILTRATION,ALWAYS ON DISCRETE,BUILDING STORY 1 THERMALZONE 3,60.03,3.6,1.983E-003,3.303E-005,1.352E-005,3.303E-002,0.000,0.000,0.224,0.000
 ZoneInfiltration Airflow Stats Nominal, BUILDING STORY 1 THERMALZONE 4 OFFICE WHOLEBUILDING - SM OFFICE A END_B - STORY GROUND INFILTRATION,ALWAYS ON DISCRETE,BUILDING STORY 1 THERMALZONE 4,88.14,5.3,2.847E-003,3.230E-005,1.352E-005,3.230E-002,0.000,0.000,0.224,0.000
 ZoneInfiltration Airflow Stats Nominal, BUILDING STORY 1 THERMALZONE OFFICE WHOLEBUILDING - SM OFFICE B END_A - STORY GROUND INFILTRATION,ALWAYS ON DISCRETE,BUILDING STORY 1 THERMALZONE,521.19,31.4,1.095E-002,2.101E-005,2.101E-005,2.101E-002,0.000,0.000,0.224,0.000
 ZoneInfiltration Airflow Stats Nominal, BUILDING STORY 1 THERMALZONE 1 OFFICE WHOLEBUILDING - SM OFFICE B END_A - STORY GROUND INFILTRATION,ALWAYS ON DISCRETE,BUILDING STORY 1 THERMALZONE 1,60.03,3.6,3.081E-003,5.132E-005,2.101E-005,5.132E-002,0.000,0.000,0.224,0.000
 ZoneInfiltration Airflow Stats Nominal, BUILDING STORY 1 THERMALZONE 2 OFFICE WHOLEBUILDING - SM OFFICE B END_A - STORY GROUND INFILTRATION,ALWAYS ON DISCRETE,BUILDING STORY 1 THERMALZONE 2,88.14,5.3,4.423E-003,5.019E-005,2.101E-005,5.019E-002,0.000,0.000,0.224,0.000
 ZoneInfiltration Airflow Stats Nominal, BUILDING STORY 1 THERMALZONE 3 OFFICE WHOLEBUILDING - SM OFFICE B END_A - STORY GROUND INFILTRATION,ALWAYS ON DISCRETE,BUILDING STORY 1 THERMALZONE 3,60.03,3.6,3.081E-003,5.132E-005,2.101E-005,5.132E-002,0.000,0.000,0.224,0.000
 ZoneInfiltration Airflow Stats Nominal, BUILDING STORY 1 THERMALZONE 4 OFFICE WHOLEBUILDING - SM OFFICE B END_A - STORY GROUND INFILTRATION,ALWAYS ON DISCRETE,BUILDING STORY 1 THERMALZONE 4,88.14,5.3,4.423E-003,5.019E-005,2.101E-005,5.019E-002,0.000,0.000,0.224,0.000
 ZoneInfiltration Airflow Stats Nominal, BUILDING STORY 1 THERMALZONE OFFICE WHOLEBUILDING - SM OFFICE B END_B - STORY GROUND INFILTRATION,ALWAYS ON DISCRETE,BUILDING STORY 1 THERMALZONE,521.19,31.4,1.095E-002,2.101E-005,2.101E-005,2.101E-002,0.000,0.000,0.224,0.000
 ZoneInfiltration Airflow Stats Nominal, BUILDING STORY 1 THERMALZONE 1 OFFICE WHOLEBUILDING - SM OFFICE B END_B - STORY GROUND INFILTRATION,ALWAYS ON DISCRETE,BUILDING STORY 1 THERMALZONE 1,60.03,3.6,3.081E-003,5.132E-005,2.101E-005,5.132E-002,0.000,0.000,0.224,0.000
 ZoneInfiltration Airflow Stats Nominal, BUILDING STORY 1 THERMALZONE 2 OFFICE WHOLEBUILDING - SM OFFICE B END_B - STORY GROUND INFILTRATION,ALWAYS ON DISCRETE,BUILDING STORY 1 THERMALZONE 2,88.14,5.3,4.423E-003,5.019E-005,2.101E-005,5.019E-002,0.000,0.000,0.224,0.000
 ZoneInfiltration Airflow Stats Nominal, BUILDING STORY 1 THERMALZONE 3 OFFICE WHOLEBUILDING - SM OFFICE B END_B - STORY GROUND INFILTRATION,ALWAYS ON DISCRETE,BUILDING STORY 1 THERMALZONE 3,60.03,3.6,3.081E-003,5.132E-005,2.101E-005,5.132E-002,0.000,0.000,0.224,0.000
 ZoneInfiltration Airflow Stats Nominal, BUILDING STORY 1 THERMALZONE 4 OFFICE WHOLEBUILDING - SM OFFICE B END_B - STORY GROUND INFILTRATION,ALWAYS ON DISCRETE,BUILDING STORY 1 THERMALZONE 4,88.14,5.3,4.423E-003,5.019E-005,2.101E-005,5.019E-002,0.000,0.000,0.224,0.000
 ZoneInfiltration Airflow Stats Nominal, BUILDING STORY 1 THERMALZONE OFFICE WHOLEBUILDING - SM OFFICE C  - STORY GROUND INFILTRATION,ALWAYS ON DISCRETE,BUILDING STORY 1 THERMALZONE,521.19,31.4,1.995E-002,3.828E-005,3.828E-005,3.828E-002,0.000,0.000,0.224,0.000
 ZoneInfiltration Airflow Stats Nominal, BUILDING STORY 1 THERMALZONE 1 OFFICE WHOLEBUILDING - SM OFFICE C  - STORY GROUND INFILTRATION,ALWAYS ON DISCRETE,BUILDING STORY 1 THERMALZONE 1,60.03,3.6,5.613E-003,9.350E-005,3.828E-005,9.350E-002,0.000,0.000,0.224,0.000
 ZoneInfiltration Airflow Stats Nominal, BUILDING STORY 1 THERMALZONE 2 OFFICE WHOLEBUILDING - SM OFFICE C  - STORY GROUND INFILTRATION,ALWAYS ON DISCRETE,BUILDING STORY 1 THERMALZONE 2,88.14,5.3,8.058E-003,9.143E-005,3.828E-005,9.143E-002,0.000,0.000,0.224,0.000
 ZoneInfiltration Airflow Stats Nominal, BUILDING STORY 1 THERMALZONE 3 OFFICE WHOLEBUILDING - SM OFFICE C  - STORY GROUND INFILTRATION,ALWAYS ON DISCRETE,BUILDING STORY 1 THERMALZONE 3,60.03,3.6,5.613E-003,9.350E-005,3.828E-005,9.350E-002,0.000,0.000,0.224,0.000
 ZoneInfiltration Airflow Stats Nominal, BUILDING STORY 1 THERMALZONE 4 OFFICE WHOLEBUILDING - SM OFFICE C  - STORY GROUND INFILTRATION,ALWAYS ON DISCRETE,BUILDING STORY 1 THERMALZONE 4,88.14,5.3,8.058E-003,9.143E-005,3.828E-005,9.143E-002,0.000,0.000,0.224,0.000
 ZoneInfiltration Airflow Stats Nominal, BUILDING STORY 1 THERMALZONE OFFICE WHOLEBUILDING - SM OFFICE C END_A - STORY GROUND INFILTRATION,ALWAYS ON DISCRETE,BUILDING STORY 1 THERMALZONE,521.19,31.4,7.049E-003,1.352E-005,1.352E-005,1.352E-002,0.000,0.000,0.224,0.000
 ZoneInfiltration Airflow Stats Nominal, BUILDING STORY 1 THERMALZONE 1 OFFICE WHOLEBUILDING - SM OFFICE C END_A - STORY GROUND INFILTRATION,ALWAYS ON DISCRETE,BUILDING STORY 1 THERMALZONE 1,60.03,3.6,1.983E-003,3.303E-005,1.352E-005,3.303E-002,0.000,0.000,0.224,0.000
 ZoneInfiltration Airflow Stats Nominal, BUILDING STORY 1 THERMALZONE 2 OFFICE WHOLEBUILDING - SM OFFICE C END_A - STORY GROUND INFILTRATION,ALWAYS ON DISCRETE,BUILDING STORY 1 THERMALZONE 2,88.14,5.3,2.847E-003,3.230E-005,1.352E-005,3.230E-002,0.000,0.000,0.224,0.000
 ZoneInfiltration Airflow Stats Nominal, BUILDING STORY 1 THERMALZONE 3 OFFICE WHOLEBUILDING - SM OFFICE C END_A - STORY GROUND INFILTRATION,ALWAYS ON DISCRETE,BUILDING STORY 1 THERMALZONE 3,60.03,3.6,1.983E-003,3.303E-005,1.352E-005,3.303E-002,0.000,0.000,0.224,0.000
 ZoneInfiltration Airflow Stats Nominal, BUILDING STORY 1 THERMALZONE 4 OFFICE WHOLEBUILDING - SM OFFICE C END_A - STORY GROUND INFILTRATION,ALWAYS ON DISCRETE,BUILDING STORY 1 THERMALZONE 4,88.14,5.3,2.847E-003,3.230E-005,1.352E-005,3.230E-002,0.000,0.000,0.224,0.000
 ZoneInfiltration Airflow Stats Nominal, BUILDING STORY 1 THERMALZONE OFFICE WHOLEBUILDING - SM OFFICE C END_B - STORY GROUND INFILTRATION,ALWAYS ON DISCRETE,BUILDING STORY 1 THERMALZONE,521.19,31.4,7.049E-003,1.352E-005,1.352E-005,1.352E-002,0.000,0.000,0.224,0.000
 ZoneInfiltration Airflow Stats Nominal, BUILDING STORY 1 THERMALZONE 1 OFFICE WHOLEBUILDING - SM OFFICE C END_B - STORY GROUND INFILTRATION,ALWAYS ON DISCRETE,BUILDING STORY 1 THERMALZONE 1,60.03,3.6,1.983E-003,3.303E-005,1.352E-005,3.303E-002,0.000,0.000,0.224,0.000
 ZoneInfiltration Airflow Stats Nominal, BUILDING STORY 1 THERMALZONE 2 OFFICE WHOLEBUILDING - SM OFFICE C END_B - STORY GROUND INFILTRATION,ALWAYS ON DISCRETE,BUILDING STORY 1 THERMALZONE 2,88.14,5.3,2.847E-003,3.230E-005,1.352E-005,3.230E-002,0.000,0.000,0.224,0.000
 ZoneInfiltration Airflow Stats Nominal, BUILDING STORY 1 THERMALZONE 3 OFFICE WHOLEBUILDING - SM OFFICE C END_B - STORY GROUND INFILTRATION,ALWAYS ON DISCRETE,BUILDING STORY 1 THERMALZONE 3,60.03,3.6,1.983E-003,3.303E-005,1.352E-005,3.303E-002,0.000,0.000,0.224,0.000
 ZoneInfiltration Airflow Stats Nominal, BUILDING STORY 1 THERMALZONE 4 OFFICE WHOLEBUILDING - SM OFFICE C END_B - STORY GROUND INFILTRATION,ALWAYS ON DISCRETE,BUILDING STORY 1 THERMALZONE 4,88.14,5.3,2.847E-003,3.230E-005,1.352E-005,3.230E-002,0.000,0.000,0.224,0.000
! <AirFlow Model>, Simple
 AirFlow Model, Simple
! <RoomAir Model>, Zone Name, Mixing/Mundt/UCSDDV/UCSDCV/UCSDUFI/UCSDUFE/User Defined
RoomAir Model,BUILDING STORY 1 THERMALZONE,Mixing/Well-Stirred
RoomAir Model,BUILDING STORY 1 THERMALZONE 1,Mixing/Well-Stirred
RoomAir Model,BUILDING STORY 1 THERMALZONE 2,Mixing/Well-Stirred
RoomAir Model,BUILDING STORY 1 THERMALZONE 3,Mixing/Well-Stirred
RoomAir Model,BUILDING STORY 1 THERMALZONE 4,Mixing/Well-Stirred
! <AirflowNetwork Model:Control>, No Multizone or Distribution/Multizone with Distribution/Multizone without Distribution/Multizone with Distribution only during Fan Operation
AirflowNetwork Model:Control,NoMultizoneOrDistribution
! <Zone Volume Capacitance Multiplier>, Sensible Heat Capacity Multiplier, Moisture Capacity Multiplier, Carbon Dioxide Capacity Multiplier, Generic Contaminant Capacity Multiplier
Zone Volume Capacitance Multiplier,   1.000 ,   1.000,   1.000,   1.000
! <Load Timesteps in Zone Design Calculation Averaging Window>, Value
 Load Timesteps in Zone Design Calculation Averaging Window,    1
! <Heating Sizing Factor Information>, Sizing Factor ID, Value
 Heating Sizing Factor Information, Global,   1.2500
 Heating Sizing Factor Information, Zone BUILDING STORY 1 THERMALZONE,   1.2500
 Heating Sizing Factor Information, Zone BUILDING STORY 1 THERMALZONE 1,   1.2500
 Heating Sizing Factor Information, Zone BUILDING STORY 1 THERMALZONE 2,   1.2500
 Heating Sizing Factor Information, Zone BUILDING STORY 1 THERMALZONE 3,   1.2500
 Heating Sizing Factor Information, Zone BUILDING STORY 1 THERMALZONE 4,   1.2500
! <Cooling Sizing Factor Information>, Sizing Factor ID, Value
 Cooling Sizing Factor Information, Global,   1.1500
 Cooling Sizing Factor Information, Zone BUILDING STORY 1 THERMALZONE,   1.1500
 Cooling Sizing Factor Information, Zone BUILDING STORY 1 THERMALZONE 1,   1.1500
 Cooling Sizing Factor Information, Zone BUILDING STORY 1 THERMALZONE 2,   1.1500
 Cooling Sizing Factor Information, Zone BUILDING STORY 1 THERMALZONE 3,   1.1500
 Cooling Sizing Factor Information, Zone BUILDING STORY 1 THERMALZONE 4,   1.1500
! <Sky Daylight Factors>, MonthAndDay, Zone Name, Window Name, Reference Point, Daylight Factor
 Sky Daylight Factors,Clear Sky,07/21,BUILDING STORY 1 THERMALZONE 1,SUB SURFACE 1,BUILDING STORY 1 SPACE 1 DAYLT SENSOR 1,6.6090E-003
 Sky Daylight Factors,Clear Sky,07/21,BUILDING STORY 1 THERMALZONE 1,SUB SURFACE 1,BUILDING STORY 1 SPACE 1 DAYLT SENSOR 2,6.6090E-003
 Sky Daylight Factors,Clear Turbid Sky,07/21,BUILDING STORY 1 THERMALZONE 1,SUB SURFACE 1,BUILDING STORY 1 SPACE 1 DAYLT SENSOR 1,5.9211E-003
 Sky Daylight Factors,Clear Turbid Sky,07/21,BUILDING STORY 1 THERMALZONE 1,SUB SURFACE 1,BUILDING STORY 1 SPACE 1 DAYLT SENSOR 2,5.9211E-003
 Sky Daylight Factors,Intermediate Sky,07/21,BUILDING STORY 1 THERMALZONE 1,SUB SURFACE 1,BUILDING STORY 1 SPACE 1 DAYLT SENSOR 1,5.0800E-003
 Sky Daylight Factors,Intermediate Sky,07/21,BUILDING STORY 1 THERMALZONE 1,SUB SURFACE 1,BUILDING STORY 1 SPACE 1 DAYLT SENSOR 2,5.0800E-003
 Sky Daylight Factors,Overcast Sky,07/21,BUILDING STORY 1 THERMALZONE 1,SUB SURFACE 1,BUILDING STORY 1 SPACE 1 DAYLT SENSOR 1,6.1987E-003
 Sky Daylight Factors,Overcast Sky,07/21,BUILDING STORY 1 THERMALZONE 1,SUB SURFACE 1,BUILDING STORY 1 SPACE 1 DAYLT SENSOR 2,6.1987E-003
 Sky Daylight Factors,Clear Sky,07/21,BUILDING STORY 1 THERMALZONE 2,SUB SURFACE 2,BUILDING STORY 1 SPACE 2 DAYLT SENSOR 1,5.6097E-003
 Sky Daylight Factors,Clear Sky,07/21,BUILDING STORY 1 THERMALZONE 2,SUB SURFACE 2,BUILDING STORY 1 SPACE 2 DAYLT SENSOR 2,1.1018E-002
 Sky Daylight Factors,Clear Turbid Sky,07/21,BUILDING STORY 1 THERMALZONE 2,SUB SURFACE 2,BUILDING STORY 1 SPACE 2 DAYLT SENSOR 1,4.8092E-003
 Sky Daylight Factors,Clear Turbid Sky,07/21,BUILDING STORY 1 THERMALZONE 2,SUB SURFACE 2,BUILDING STORY 1 SPACE 2 DAYLT SENSOR 2,8.9854E-003
 Sky Daylight Factors,Intermediate Sky,07/21,BUILDING STORY 1 THERMALZONE 2,SUB SURFACE 2,BUILDING STORY 1 SPACE 2 DAYLT SENSOR 1,3.8247E-003
 Sky Daylight Factors,Intermediate Sky,07/21,BUILDING STORY 1 THERMALZONE 2,SUB SURFACE 2,BUILDING STORY 1 SPACE 2 DAYLT SENSOR 2,5.9365E-003
 Sky Daylight Factors,Overcast Sky,07/21,BUILDING STORY 1 THERMALZONE 2,SUB SURFACE 2,BUILDING STORY 1 SPACE 2 DAYLT SENSOR 1,6.0404E-003
 Sky Daylight Factors,Overcast Sky,07/21,BUILDING STORY 1 THERMALZONE 2,SUB SURFACE 2,BUILDING STORY 1 SPACE 2 DAYLT SENSOR 2,1.0515E-002
 Sky Daylight Factors,Clear Sky,07/21,BUILDING STORY 1 THERMALZONE 3,SUB SURFACE 3,BUILDING STORY 1 SPACE 3 DAYLT SENSOR 1,7.3558E-003
 Sky Daylight Factors,Clear Sky,07/21,BUILDING STORY 1 THERMALZONE 3,SUB SURFACE 3,BUILDING STORY 1 SPACE 3 DAYLT SENSOR 2,1.0679E-002
 Sky Daylight Factors,Clear Turbid Sky,07/21,BUILDING STORY 1 THERMALZONE 3,SUB SURFACE 3,BUILDING STORY 1 SPACE 3 DAYLT SENSOR 1,6.7834E-003
 Sky Daylight Factors,Clear Turbid Sky,07/21,BUILDING STORY 1 THERMALZONE 3,SUB SURFACE 3,BUILDING STORY 1 SPACE 3 DAYLT SENSOR 2,9.6268E-003
 Sky Daylight Factors,Intermediate Sky,07/21,BUILDING STORY 1 THERMALZONE 3,SUB SURFACE 3,BUILDING STORY 1 SPACE 3 DAYLT SENSOR 1,5.8708E-003
 Sky Daylight Factors,Intermediate Sky,07/21,BUILDING STORY 1 THERMALZONE 3,SUB SURFACE 3,BUILDING STORY 1 SPACE 3 DAYLT SENSOR 2,7.8374E-003
 Sky Daylight Factors,Overcast Sky,07/21,BUILDING STORY 1 THERMALZONE 3,SUB SURFACE 3,BUILDING STORY 1 SPACE 3 DAYLT SENSOR 1,6.1987E-003
 Sky Daylight Factors,Overcast Sky,07/21,BUILDING STORY 1 THERMALZONE 3,SUB SURFACE 3,BUILDING STORY 1 SPACE 3 DAYLT SENSOR 2,8.2230E-003
 Sky Daylight Factors,Clear Sky,07/21,BUILDING STORY 1 THERMALZONE 4,SUB SURFACE 4,BUILDING STORY 1 SPACE 4 DAYLT SENSOR 1,0.0000
 Sky Daylight Factors,Clear Sky,07/21,BUILDING STORY 1 THERMALZONE 4,SUB SURFACE 4,BUILDING STORY 1 SPACE 4 DAYLT SENSOR 2,0.0000
 Sky Daylight Factors,Clear Turbid Sky,07/21,BUILDING STORY 1 THERMALZONE 4,SUB SURFACE 4,BUILDING STORY 1 SPACE 4 DAYLT SENSOR 1,0.0000
 Sky Daylight Factors,Clear Turbid Sky,07/21,BUILDING STORY 1 THERMALZONE 4,SUB SURFACE 4,BUILDING STORY 1 SPACE 4 DAYLT SENSOR 2,0.0000
 Sky Daylight Factors,Intermediate Sky,07/21,BUILDING STORY 1 THERMALZONE 4,SUB SURFACE 4,BUILDING STORY 1 SPACE 4 DAYLT SENSOR 1,0.0000
 Sky Daylight Factors,Intermediate Sky,07/21,BUILDING STORY 1 THERMALZONE 4,SUB SURFACE 4,BUILDING STORY 1 SPACE 4 DAYLT SENSOR 2,0.0000
 Sky Daylight Factors,Overcast Sky,07/21,BUILDING STORY 1 THERMALZONE 4,SUB SURFACE 4,BUILDING STORY 1 SPACE 4 DAYLT SENSOR 1,0.0000
 Sky Daylight Factors,Overcast Sky,07/21,BUILDING STORY 1 THERMALZONE 4,SUB SURFACE 4,BUILDING STORY 1 SPACE 4 DAYLT SENSOR 2,0.0000
! <Zone Sizing Information>, Zone Name, Load Type, Calc Des Load {W}, User Des Load {W}, Calc Des Air Flow Rate {m3/s}, User Des Air Flow Rate {m3/s}, Design Day Name, Date/Time of Peak, Temperature at Peak {C}, Humidity Ratio at Peak {kgWater/kgDryAir}, Floor Area {m2}, # Occupants, Calc Outdoor Air Flow Rate {m3/s}, Calc DOAS Heat Addition Rate {W}
 Zone Sizing Information, BUILDING STORY 1 THERMALZONE, Cooling, 5726.94686, 6585.98888, 0.43031, 0.49486, BUFFALO NIAGARA INTL AP ANN CLG .4% CONDNS DB=>MWB 1, 7/21 15:00:00, 30.30000, 1.33670E-002, 521.19498, 31.41654, 0.22505, 0.00000
 Zone Sizing Information, BUILDING STORY 1 THERMALZONE, Heating, 7454.58081, 9318.22602, 0.32964, 0.41205, BUFFALO NIAGARA INTL AP ANN HTG 99.6% CONDNS DB 1, 1/21 24:00:00, -16.30000, 9.24091E-004, 521.19498, 31.41654, 0.22505, 0.00000
 Zone Sizing Information, BUILDING STORY 1 THERMALZONE 1, Cooling, 5921.45251, 6809.67039, 0.44486, 0.51159, BUFFALO NIAGARA INTL AP ANN CLG .4% CONDNS DB=>MWB 1, 7/21 17:00:00, 28.99800, 1.33646E-002, 60.02920, 3.61843, 2.59206E-002, 0.00000
 Zone Sizing Information, BUILDING STORY 1 THERMALZONE 1, Heating, 3945.71965, 4932.14957, 0.17447, 0.21809, BUFFALO NIAGARA INTL AP ANN HTG 99.6% CONDNS DB 1, 1/21 24:00:00, -16.30000, 9.24091E-004, 60.02920, 3.61843, 2.59206E-002, 0.00000
 Zone Sizing Information, BUILDING STORY 1 THERMALZONE 2, Cooling, 3501.89659, 4027.18108, 0.26309, 0.30255, BUFFALO NIAGARA INTL AP ANN CLG .4% CONDNS DB=>MWB 1, 7/21 19:00:00, 26.67300, 1.33605E-002, 88.13899, 5.31283, 3.80584E-002, 0.00000
 Zone Sizing Information, BUILDING STORY 1 THERMALZONE 2, Heating, 5619.09838, 7023.87297, 0.24847, 0.31058, BUFFALO NIAGARA INTL AP ANN HTG 99.6% CONDNS DB 1, 1/21 24:00:00, -16.30000, 9.24091E-004, 88.13899, 5.31283, 3.80584E-002, 0.00000
 Zone Sizing Information, BUILDING STORY 1 THERMALZONE 3, Cooling, 4888.50669, 5621.78269, 0.36737, 0.42248, BUFFALO NIAGARA INTL AP ANN CLG .4% CONDNS DB=>MWB 1, 7/21 09:00:00, 25.18500, 1.33579E-002, 60.02913, 3.61843, 2.59206E-002, 0.00000
 Zone Sizing Information, BUILDING STORY 1 THERMALZONE 3, Heating, 3951.77975, 4939.72469, 0.17474, 0.21843, BUFFALO NIAGARA INTL AP ANN HTG 99.6% CONDNS DB 1, 1/21 24:00:00, -16.30000, 9.24091E-004, 60.02913, 3.61843, 2.59206E-002, 0.00000
 Zone Sizing Information, BUILDING STORY 1 THERMALZONE 4, Cooling, 5465.42649, 6285.24046, 0.41062, 0.47222, BUFFALO NIAGARA INTL AP ANN CLG .4% CONDNS DB=>MWB 1, 7/21 12:00:00, 29.09100, 1.33648E-002, 88.13908, 5.31284, 3.80585E-002, 0.00000
 Zone Sizing Information, BUILDING STORY 1 THERMALZONE 4, Heating, 5627.68945, 7034.61182, 0.24885, 0.31106, BUFFALO NIAGARA INTL AP ANN HTG 99.6% CONDNS DB 1, 1/21 24:00:00, -16.30000, 9.24091E-004, 88.13908, 5.31284, 3.80585E-002, 0.00000
! <System Sizing Information>, System Name, Load Type, Peak Load Kind, User Design Capacity, Calc Des Air Flow Rate [m3/s], User Des Air Flow Rate [m3/s], Design Day Name, Date/Time of Peak
 System Sizing Information, 5 ZONE VAV, Cooling, Sensible, 26653.32, 1.71628, 1.71628, BUFFALO NIAGARA INTL AP ANN CLG .4% CONDNS DB=>MWB 1, 7/21 00:00:00
 System Sizing Information, 5 ZONE VAV, Heating, Sensible, 11520.42, 1.47021, 1.47021, BUFFALO NIAGARA INTL AP ANN HTG 99.6% CONDNS DB 1, 1/21 01:00:00
! <Component Sizing Information>, Component Type, Component Name, Input Field Description, Value
 Component Sizing Information, AirTerminal:SingleDuct:VAV:Reheat, BUILDING STORY 1 THERMALZONE VAV TERMINAL, Design Size Maximum Air Flow Rate [m3/s], 0.49486
 Component Sizing Information, AirTerminal:SingleDuct:VAV:Reheat, BUILDING STORY 1 THERMALZONE VAV TERMINAL, Design Size Constant Minimum Air Flow Fraction, 0.80255
 Component Sizing Information, AirTerminal:SingleDuct:VAV:Reheat, BUILDING STORY 1 THERMALZONE VAV TERMINAL, User-Specified Constant Minimum Air Flow Fraction, 0.26266
 Component Sizing Information, AirTerminal:SingleDuct:VAV:Reheat, BUILDING STORY 1 THERMALZONE VAV TERMINAL, Design Size Minimum Air Flow Rate [m3/s], 0.12998
 Component Sizing Information, AirTerminal:SingleDuct:VAV:Reheat, BUILDING STORY 1 THERMALZONE VAV TERMINAL, Design Size Maximum Flow Fraction during Reheat [], 1.00000
 Component Sizing Information, AirTerminal:SingleDuct:VAV:Reheat, BUILDING STORY 1 THERMALZONE VAV TERMINAL, User-Specified Maximum Flow Fraction during Reheat [], 0.50000
 Component Sizing Information, AirTerminal:SingleDuct:VAV:Reheat, BUILDING STORY 1 THERMALZONE VAV TERMINAL, Design Size Maximum Flow per Zone Floor Area during Reheat [m3/s-m2], 4.74735E-004
 Component Sizing Information, AirTerminal:SingleDuct:VAV:Reheat, BUILDING STORY 1 THERMALZONE VAV TERMINAL, Design Size Maximum Reheat Water Flow Rate [m3/s], 2.93600E-004
 Component Sizing Information, AirTerminal:SingleDuct:VAV:Reheat, BUILDING STORY 1 THERMALZONE VAV TERMINAL, Design Size Reheat Coil Sizing Air Volume Flow Rate [m3/s], 0.41205
 Component Sizing Information, AirTerminal:SingleDuct:VAV:Reheat, BUILDING STORY 1 THERMALZONE VAV TERMINAL, Design Size Reheat Coil Sizing Inlet Air Temperature [C], 12.77778
 Component Sizing Information, AirTerminal:SingleDuct:VAV:Reheat, BUILDING STORY 1 THERMALZONE VAV TERMINAL, Design Size Reheat Coil Sizing Inlet Air Humidity Ratio [kgWater/kgDryAir], 8.00000E-003
 Component Sizing Information, Coil:Heating:Water, BUILDING STORY 1 THERMALZONE REHEAT COIL, Design Size Rated Capacity [W], 13423.04843
 Component Sizing Information, Coil:Heating:Water, BUILDING STORY 1 THERMALZONE REHEAT COIL, Design Size Maximum Water Flow Rate [m3/s], 2.93600E-004
 Component Sizing Information, Coil:Heating:Water, BUILDING STORY 1 THERMALZONE REHEAT COIL, Design Size U-Factor Times Area Value [W/K], 278.70163
! <Water Heating Coil Capacity Information>,Component Type,Name,Nominal Total Capacity {W}
Water Heating Coil Capacity Information,Coil:Heating:Water,BUILDING STORY 1 THERMALZONE REHEAT COIL,12691.61
 Component Sizing Information, AirTerminal:SingleDuct:VAV:Reheat, BUILDING STORY 1 THERMALZONE 1 VAV TERMINAL, Design Size Maximum Air Flow Rate [m3/s], 0.51159
 Component Sizing Information, AirTerminal:SingleDuct:VAV:Reheat, BUILDING STORY 1 THERMALZONE 1 VAV TERMINAL, Design Size Constant Minimum Air Flow Fraction, 8.94120E-002
 Component Sizing Information, AirTerminal:SingleDuct:VAV:Reheat, BUILDING STORY 1 THERMALZONE 1 VAV TERMINAL, User-Specified Constant Minimum Air Flow Fraction, 0.26266
 Component Sizing Information, AirTerminal:SingleDuct:VAV:Reheat, BUILDING STORY 1 THERMALZONE 1 VAV TERMINAL, Design Size Minimum Air Flow Rate [m3/s], 0.13437
 Component Sizing Information, AirTerminal:SingleDuct:VAV:Reheat, BUILDING STORY 1 THERMALZONE 1 VAV TERMINAL, Design Size Maximum Flow Fraction during Reheat [], 0.30000
 Component Sizing Information, AirTerminal:SingleDuct:VAV:Reheat, BUILDING STORY 1 THERMALZONE 1 VAV TERMINAL, User-Specified Maximum Flow Fraction during Reheat [], 0.50000
 Component Sizing Information, AirTerminal:SingleDuct:VAV:Reheat, BUILDING STORY 1 THERMALZONE 1 VAV TERMINAL, Design Size Maximum Flow per Zone Floor Area during Reheat [m3/s-m2], 4.26117E-003
 Component Sizing Information, AirTerminal:SingleDuct:VAV:Reheat, BUILDING STORY 1 THERMALZONE 1 VAV TERMINAL, Design Size Maximum Reheat Water Flow Rate [m3/s], 1.55420E-004
 Component Sizing Information, AirTerminal:SingleDuct:VAV:Reheat, BUILDING STORY 1 THERMALZONE 1 VAV TERMINAL, Design Size Reheat Coil Sizing Air Volume Flow Rate [m3/s], 0.21809
 Component Sizing Information, AirTerminal:SingleDuct:VAV:Reheat, BUILDING STORY 1 THERMALZONE 1 VAV TERMINAL, Design Size Reheat Coil Sizing Inlet Air Temperature [C], 12.77778
 Component Sizing Information, AirTerminal:SingleDuct:VAV:Reheat, BUILDING STORY 1 THERMALZONE 1 VAV TERMINAL, Design Size Reheat Coil Sizing Inlet Air Humidity Ratio [kgWater/kgDryAir], 8.00000E-003
 Component Sizing Information, Coil:Heating:Water, BUILDING STORY 1 THERMALZONE 1 REHEAT COIL, Design Size Rated Capacity [W], 7105.61704
 Component Sizing Information, Coil:Heating:Water, BUILDING STORY 1 THERMALZONE 1 REHEAT COIL, Design Size Maximum Water Flow Rate [m3/s], 1.55420E-004
 Component Sizing Information, Coil:Heating:Water, BUILDING STORY 1 THERMALZONE 1 REHEAT COIL, Design Size U-Factor Times Area Value [W/K], 147.53977
Water Heating Coil Capacity Information,Coil:Heating:Water,BUILDING STORY 1 THERMALZONE 1 REHEAT COIL,6718.42
 Component Sizing Information, AirTerminal:SingleDuct:VAV:Reheat, BUILDING STORY 1 THERMALZONE 2 VAV TERMINAL, Design Size Maximum Air Flow Rate [m3/s], 0.31058
 Component Sizing Information, AirTerminal:SingleDuct:VAV:Reheat, BUILDING STORY 1 THERMALZONE 2 VAV TERMINAL, Design Size Constant Minimum Air Flow Fraction, 0.21624
 Component Sizing Information, AirTerminal:SingleDuct:VAV:Reheat, BUILDING STORY 1 THERMALZONE 2 VAV TERMINAL, User-Specified Constant Minimum Air Flow Fraction, 0.26266
 Component Sizing Information, AirTerminal:SingleDuct:VAV:Reheat, BUILDING STORY 1 THERMALZONE 2 VAV TERMINAL, Design Size Minimum Air Flow Rate [m3/s], 8.15770E-002
 Component Sizing Information, AirTerminal:SingleDuct:VAV:Reheat, BUILDING STORY 1 THERMALZONE 2 VAV TERMINAL, Design Size Maximum Flow Fraction during Reheat [], 0.57665
 Component Sizing Information, AirTerminal:SingleDuct:VAV:Reheat, BUILDING STORY 1 THERMALZONE 2 VAV TERMINAL, User-Specified Maximum Flow Fraction during Reheat [], 0.50000
 Component Sizing Information, AirTerminal:SingleDuct:VAV:Reheat, BUILDING STORY 1 THERMALZONE 2 VAV TERMINAL, Design Size Maximum Flow per Zone Floor Area during Reheat [m3/s-m2], 1.76190E-003
 Component Sizing Information, AirTerminal:SingleDuct:VAV:Reheat, BUILDING STORY 1 THERMALZONE 2 VAV TERMINAL, Design Size Maximum Reheat Water Flow Rate [m3/s], 2.21333E-004
 Component Sizing Information, AirTerminal:SingleDuct:VAV:Reheat, BUILDING STORY 1 THERMALZONE 2 VAV TERMINAL, Design Size Reheat Coil Sizing Air Volume Flow Rate [m3/s], 0.31058
 Component Sizing Information, AirTerminal:SingleDuct:VAV:Reheat, BUILDING STORY 1 THERMALZONE 2 VAV TERMINAL, Design Size Reheat Coil Sizing Inlet Air Temperature [C], 12.77778
 Component Sizing Information, AirTerminal:SingleDuct:VAV:Reheat, BUILDING STORY 1 THERMALZONE 2 VAV TERMINAL, Design Size Reheat Coil Sizing Inlet Air Humidity Ratio [kgWater/kgDryAir], 8.00000E-003
 Component Sizing Information, Coil:Heating:Water, BUILDING STORY 1 THERMALZONE 2 REHEAT COIL, Design Size Rated Capacity [W], 10119.09779
 Component Sizing Information, Coil:Heating:Water, BUILDING STORY 1 THERMALZONE 2 REHEAT COIL, Design Size Maximum Water Flow Rate [m3/s], 2.21333E-004
 Component Sizing Information, Coil:Heating:Water, BUILDING STORY 1 THERMALZONE 2 REHEAT COIL, Design Size U-Factor Times Area Value [W/K], 210.11107
Water Heating Coil Capacity Information,Coil:Heating:Water,BUILDING STORY 1 THERMALZONE 2 REHEAT COIL,9567.69
 Component Sizing Information, AirTerminal:SingleDuct:VAV:Reheat, BUILDING STORY 1 THERMALZONE 3 VAV TERMINAL, Design Size Maximum Air Flow Rate [m3/s], 0.42248
 Component Sizing Information, AirTerminal:SingleDuct:VAV:Reheat, BUILDING STORY 1 THERMALZONE 3 VAV TERMINAL, Design Size Constant Minimum Air Flow Fraction, 0.10827
 Component Sizing Information, AirTerminal:SingleDuct:VAV:Reheat, BUILDING STORY 1 THERMALZONE 3 VAV TERMINAL, User-Specified Constant Minimum Air Flow Fraction, 0.26266
 Component Sizing Information, AirTerminal:SingleDuct:VAV:Reheat, BUILDING STORY 1 THERMALZONE 3 VAV TERMINAL, Design Size Minimum Air Flow Rate [m3/s], 0.11097
 Component Sizing Information, AirTerminal:SingleDuct:VAV:Reheat, BUILDING STORY 1 THERMALZONE 3 VAV TERMINAL, Design Size Maximum Flow Fraction during Reheat [], 0.33511
 Component Sizing Information, AirTerminal:SingleDuct:VAV:Reheat, BUILDING STORY 1 THERMALZONE 3 VAV TERMINAL, User-Specified Maximum Flow Fraction during Reheat [], 0.50000
 Component Sizing Information, AirTerminal:SingleDuct:VAV:Reheat, BUILDING STORY 1 THERMALZONE 3 VAV TERMINAL, Design Size Maximum Flow per Zone Floor Area during Reheat [m3/s-m2], 3.51896E-003
 Component Sizing Information, AirTerminal:SingleDuct:VAV:Reheat, BUILDING STORY 1 THERMALZONE 3 VAV TERMINAL, Design Size Maximum Reheat Water Flow Rate [m3/s], 1.55659E-004
 Component Sizing Information, AirTerminal:SingleDuct:VAV:Reheat, BUILDING STORY 1 THERMALZONE 3 VAV TERMINAL, Design Size Reheat Coil Sizing Air Volume Flow Rate [m3/s], 0.21843
 Component Sizing Information, AirTerminal:SingleDuct:VAV:Reheat, BUILDING STORY 1 THERMALZONE 3 VAV TERMINAL, Design Size Reheat Coil Sizing Inlet Air Temperature [C], 12.77778
 Component Sizing Information, AirTerminal:SingleDuct:VAV:Reheat, BUILDING STORY 1 THERMALZONE 3 VAV TERMINAL, Design Size Reheat Coil Sizing Inlet Air Humidity Ratio [kgWater/kgDryAir], 8.00000E-003
 Component Sizing Information, Coil:Heating:Water, BUILDING STORY 1 THERMALZONE 3 REHEAT COIL, Design Size Rated Capacity [W], 7116.53237
 Component Sizing Information, Coil:Heating:Water, BUILDING STORY 1 THERMALZONE 3 REHEAT COIL, Design Size Maximum Water Flow Rate [m3/s], 1.55659E-004
 Component Sizing Information, Coil:Heating:Water, BUILDING STORY 1 THERMALZONE 3 REHEAT COIL, Design Size U-Factor Times Area Value [W/K], 147.76643
Water Heating Coil Capacity Information,Coil:Heating:Water,BUILDING STORY 1 THERMALZONE 3 REHEAT COIL,6728.74
 Component Sizing Information, AirTerminal:SingleDuct:VAV:Reheat, BUILDING STORY 1 THERMALZONE 4 VAV TERMINAL, Design Size Maximum Air Flow Rate [m3/s], 0.47222
 Component Sizing Information, AirTerminal:SingleDuct:VAV:Reheat, BUILDING STORY 1 THERMALZONE 4 VAV TERMINAL, Design Size Constant Minimum Air Flow Fraction, 0.14223
 Component Sizing Information, AirTerminal:SingleDuct:VAV:Reheat, BUILDING STORY 1 THERMALZONE 4 VAV TERMINAL, User-Specified Constant Minimum Air Flow Fraction, 0.26266
 Component Sizing Information, AirTerminal:SingleDuct:VAV:Reheat, BUILDING STORY 1 THERMALZONE 4 VAV TERMINAL, Design Size Minimum Air Flow Rate [m3/s], 0.12403
 Component Sizing Information, AirTerminal:SingleDuct:VAV:Reheat, BUILDING STORY 1 THERMALZONE 4 VAV TERMINAL, Design Size Maximum Flow Fraction during Reheat [], 0.37927
 Component Sizing Information, AirTerminal:SingleDuct:VAV:Reheat, BUILDING STORY 1 THERMALZONE 4 VAV TERMINAL, User-Specified Maximum Flow Fraction during Reheat [], 0.50000
 Component Sizing Information, AirTerminal:SingleDuct:VAV:Reheat, BUILDING STORY 1 THERMALZONE 4 VAV TERMINAL, Design Size Maximum Flow per Zone Floor Area during Reheat [m3/s-m2], 2.67882E-003
 Component Sizing Information, AirTerminal:SingleDuct:VAV:Reheat, BUILDING STORY 1 THERMALZONE 4 VAV TERMINAL, Design Size Maximum Reheat Water Flow Rate [m3/s], 2.21672E-004
 Component Sizing Information, AirTerminal:SingleDuct:VAV:Reheat, BUILDING STORY 1 THERMALZONE 4 VAV TERMINAL, Design Size Reheat Coil Sizing Air Volume Flow Rate [m3/s], 0.31106
 Component Sizing Information, AirTerminal:SingleDuct:VAV:Reheat, BUILDING STORY 1 THERMALZONE 4 VAV TERMINAL, Design Size Reheat Coil Sizing Inlet Air Temperature [C], 12.77778
 Component Sizing Information, AirTerminal:SingleDuct:VAV:Reheat, BUILDING STORY 1 THERMALZONE 4 VAV TERMINAL, Design Size Reheat Coil Sizing Inlet Air Humidity Ratio [kgWater/kgDryAir], 8.00000E-003
 Component Sizing Information, Coil:Heating:Water, BUILDING STORY 1 THERMALZONE 4 REHEAT COIL, Design Size Rated Capacity [W], 10134.57188
 Component Sizing Information, Coil:Heating:Water, BUILDING STORY 1 THERMALZONE 4 REHEAT COIL, Design Size Maximum Water Flow Rate [m3/s], 2.21672E-004
 Component Sizing Information, Coil:Heating:Water, BUILDING STORY 1 THERMALZONE 4 REHEAT COIL, Design Size U-Factor Times Area Value [W/K], 210.43239
Water Heating Coil Capacity Information,Coil:Heating:Water,BUILDING STORY 1 THERMALZONE 4 REHEAT COIL,9582.32
 Component Sizing Information, AirLoopHVAC, 5 ZONE VAV, Sum of Air Terminal Maximum Heating Flow Rates [m3/s], 1.10587
 Component Sizing Information, AirLoopHVAC, 5 ZONE VAV, Sum of Air Terminal Minimum Heating Flow Rates [m3/s], 0.58093
 Component Sizing Information, AirLoopHVAC, 5 ZONE VAV, Sum of Air Terminal Maximum Flow Rates [m3/s], 2.21173
 Component Sizing Information, AirLoopHVAC, 5 ZONE VAV, Adjusted Heating Design Air Flow Rate [m3/s], 1.47021
 Component Sizing Information, AirLoopHVAC, 5 ZONE VAV, Adjusted Cooling Design Air Flow Rate [m3/s], 1.71628
 Component Sizing Information, AirLoopHVAC, 5 ZONE VAV, Adjusted Main Design Air Flow Rate [m3/s], 1.71628
 Component Sizing Information, AirLoopHVAC, 5 ZONE VAV, User Heating Air Flow Ratio [], 0.30000
 Component Sizing Information, AirLoopHVAC, 5 ZONE VAV, Calculated Heating Air Flow Ratio [], 0.85663
 Component Sizing Information, AirLoopHVAC, 5 ZONE VAV, Design Supply Air Flow Rate [m3/s], 1.71628
!<Controller:MechanicalVentilation>,Name,Availability Schedule Name,Demand Controlled Ventilation {Yes/No},System Outdoor Air Method,Zone Maximum Outdoor Air Fraction,Number of Zones,Zone Name,DSOA Name,DSZAD Name
 Controller:MechanicalVentilation,5 ZONE VAV VENT CONTROLLER,5 ZONE VAV OCC SCH,No,ZoneSum,1.00,5,BUILDING STORY 1 THERMALZONE,BLENDED OA,,BUILDING STORY 1 THERMALZONE 1,BLENDED OA,,BUILDING STORY 1 THERMALZONE 2,BLENDED OA,,BUILDING STORY 1 THERMALZONE 3,BLENDED OA,,BUILDING STORY 1 THERMALZONE 4,BLENDED OA,
 Component Sizing Information, Controller:OutdoorAir, 5 ZONE VAV OA CONTROLLER, Maximum Outdoor Air Flow Rate [m3/s], 1.71628
 Component Sizing Information, Controller:OutdoorAir, 5 ZONE VAV OA CONTROLLER, Minimum Outdoor Air Flow Rate [m3/s], 0.58835
 Component Sizing Information, HeatExchanger:AirToAir:SensibleAndLatent, 5 ZONE VAV ERV, Design Size Nominal Supply Air Flow Rate [m3/s], 0.58835
 Component Sizing Information, Coil:Cooling:Water, 5 ZONE VAV CLG COIL, Design Size Design Inlet Air Temperature [C], 26.11384
 Component Sizing Information, Coil:Cooling:Water, 5 ZONE VAV CLG COIL, Design Size Design Inlet Water Temperature [C], 6.66667
 Component Sizing Information, Coil:Cooling:Water, 5 ZONE VAV CLG COIL, Design Size Design Outlet Air Temperature [C], 11.35404
 Component Sizing Information, Coil:Cooling:Water, 5 ZONE VAV CLG COIL, Design Size Design Inlet Air Humidity Ratio [kgWater/kgDryAir], 1.06965E-002
 Component Sizing Information, Coil:Cooling:Water, 5 ZONE VAV CLG COIL, Design Size Design Outlet Air Humidity Ratio [kgWater/kgDryAir], 8.50000E-003
 Component Sizing Information, Coil:Cooling:Water, 5 ZONE VAV CLG COIL, Design Size Design Coil Load [W], 41634.20395
 Component Sizing Information, Coil:Cooling:Water, 5 ZONE VAV CLG COIL, Design Size Design Water Flow Rate [m3/s], 1.76771E-003
 Component Sizing Information, Coil:Cooling:Water, 5 ZONE VAV CLG COIL, Design Size Design Air Flow Rate [m3/s], 1.71628
! <Water Cooling Coil Capacity Information>,Component Type,Name,Nominal Total Capacity {W},Nominal Sensible Capacity {W},Nominal Latent Capacity {W},Nominal Sensible Heat Ratio, Nominal Coil UA Value {W/C}, Nominal Coil Surface Area {m2}
Water Cooling Coil Capacity Information,Coil:Cooling:Water,5 ZONE VAV CLG COIL,44932.37,30260.85,14671.53,0.67,4665.86,47.32
 Component Sizing Information, Coil:Heating:Water, 5 ZONE VAV MAIN HTG COIL, Design Size Rated Capacity [W], 17661.08127
 Component Sizing Information, Coil:Heating:Water, 5 ZONE VAV MAIN HTG COIL, Design Size Maximum Water Flow Rate [m3/s], 3.86298E-004
 Component Sizing Information, Coil:Heating:Water, 5 ZONE VAV MAIN HTG COIL, Design Size U-Factor Times Area Value [W/K], 232.03838
Water Heating Coil Capacity Information,Coil:Heating:Water,5 ZONE VAV MAIN HTG COIL,11790.82
 Component Sizing Information, Fan:VariableVolume, 5 ZONE VAV FAN, Design Size Maximum Flow Rate [m3/s], 1.71628
 Component Sizing Information, Controller:WaterCoil, 5 ZONE VAV CLG COIL CONTROLLER, Maximum Actuated Flow [m3/s], 1.76771E-003
 Component Sizing Information, Controller:WaterCoil, 5 ZONE VAV CLG COIL CONTROLLER, Controller Convergence Tolerance, 2.69383E-004
 Component Sizing Information, Controller:WaterCoil, 5 ZONE VAV MAIN HTG COIL CONTROLLER, Maximum Actuated Flow [m3/s], 3.86298E-004
Water Heater Information,WaterHeater:Mixed,40GAL NATURALGAS WATER HEATER - 5KBTU/HR 0.82 THERM EFF,0.1514,1477.2,0.160,0.9606
 Component Sizing Information, PlantLoop, CHILLED WATER LOOP, Initial Maximum Loop Flow Rate [m3/s], 1.76771E-003
 Component Sizing Information, PlantLoop, CHILLED WATER LOOP, Initial Plant Loop Volume [m3], 0.21212
 Component Sizing Information, Pump:VariableSpeed, CHILLED WATER LOOP PUMP, Initial Design Flow Rate [m3/s], 1.76771E-003
 Component Sizing Information, Pump:VariableSpeed, CHILLED WATER LOOP PUMP, Initial Design Power Consumption [W], 475.37537
 Component Sizing Information, DistrictCooling, PURCHASED COOLING, Initial Design Size Nominal Capacity [W], 41634.20395
 Component Sizing Information, PlantLoop, HOT WATER LOOP, Initial Maximum Loop Flow Rate [m3/s], 1.43398E-003
 Component Sizing Information, PlantLoop, HOT WATER LOOP, Initial Plant Loop Volume [m3], 0.17208
 Component Sizing Information, Pump:VariableSpeed, HOT WATER LOOP PUMP, Initial Design Flow Rate [m3/s], 1.43398E-003
 Component Sizing Information, Pump:VariableSpeed, HOT WATER LOOP PUMP, Initial Design Power Consumption [W], 385.62924
 Component Sizing Information, DistrictHeating, HOT WATER LOOP DISTRICT HEATING, Initial Design Size Nominal Capacity [W], 66879.36880
 Component Sizing Information, PlantLoop, OFFICE SHARED SERVICE WATER LOOP, Initial Maximum Loop Flow Rate [m3/s], 5.04767E-006
 Component Sizing Information, PlantLoop, OFFICE SHARED SERVICE WATER LOOP, Initial Plant Loop Volume [m3], 6.05721E-004
 Component Sizing Information, Pump:ConstantSpeed, OFFICE SHARED SERVICE WATER LOOP CIRCULATOR PUMP, Initial Design Flow Rate [m3/s], 5.04767E-006
 Component Sizing Information, Pump:ConstantSpeed, OFFICE SHARED SERVICE WATER LOOP CIRCULATOR PUMP, Initial Design Power Consumption [W], 0.27633
 Component Sizing Information, WaterHeater:Mixed, 40GAL NATURALGAS WATER HEATER - 5KBTU/HR 0.82 THERM EFF, Initial Use Side Design Flow Rate [m3/s], 5.04767E-006
! <Environment>,Environment Name,Environment Type, Start Date, End Date, Start DayOfWeek, Duration {#days}, Source:Start DayOfWeek,  Use Daylight Saving, Use Holidays, Apply Weekend Holiday Rule,  Use Rain Values, Use Snow Values, Sky Temperature Model
! <Environment:Special Days>, Special Day Name, Special Day Type, Source, Start Date, Duration {#days}
! <Environment:Daylight Saving>, Daylight Saving Indicator, Source, Start Date, End Date
! <Environment:WarmupDays>, NumberofWarmupDays
Environment,RUN PERIOD 1,WeatherFileRunPeriod,01/01/2017,12/31/2017,Sunday,365,Use RunPeriod Specified Day,No,No,No,Yes,Yes,Clark and Allen
Environment:Daylight Saving,Yes,InputFile,03/12,11/05
! <Environment:Design Day Data>, Max Dry-Bulb Temp {C}, Temp Range {dC}, Temp Range Ind Type, Hum Ind Type, Hum Ind Value at Max Temp, Hum Ind Units, Pressure {Pa}, Wind Direction {deg CW from N}, Wind Speed {m/s}, Clearness, Rain, Snow
! <Environment:Design Day Misc>,DayOfYear,ASHRAE A Coeff,ASHRAE B Coeff,ASHRAE C Coeff,Solar Constant-Annual Variation,Eq of Time {minutes}, Solar Declination Angle {deg}, Solar Model
Environment:Design Day Data,30.30,9.30,DefaultMultipliers,Wetbulb,21.80,{C},98769,240,5.7,0.00,No,No
Environment:Design Day Misc,202,1084.4,0.2082,0.1365,1.0,-6.23,20.6,ASHRAETau
Environment:WarmupDays,  3
! <Tabular Report>,Style,Unit Conversion
Tabular Report,HTML,None
! <Warmup Convergence Information>,Zone Name,Environment Type/Name,Average Warmup Temperature Difference {deltaC},Std Dev Warmup Temperature Difference {deltaC},Max Temperature Pass/Fail Convergence,Min Temperature Pass/Fail Convergence,Average Warmup Load Difference {W},Std Dev Warmup Load Difference {W},Heating Load Pass/Fail Convergence,Cooling Load Pass/Fail Convergence
 Warmup Convergence Information,BUILDING STORY 1 THERMALZONE,SizingPeriod: BUFFALO NIAGARA INTL AP ANN CLG .4% CONDNS DB=>MWB 1 HVAC Sizing Pass 1,5.2903770822E-003,9.9415470078E-003,Pass,Pass,3.6174682555E-002,2.0298011335E-002,Pass,Pass
 Warmup Convergence Information,BUILDING STORY 1 THERMALZONE 1,SizingPeriod: BUFFALO NIAGARA INTL AP ANN CLG .4% CONDNS DB=>MWB 1 HVAC Sizing Pass 1,8.3065360644E-002,8.5915822337E-002,Pass,Pass,0.1513214445,0.2236649278,Pass,Pass
 Warmup Convergence Information,BUILDING STORY 1 THERMALZONE 2,SizingPeriod: BUFFALO NIAGARA INTL AP ANN CLG .4% CONDNS DB=>MWB 1 HVAC Sizing Pass 1,1.1955504220E-002,2.3820974925E-002,Pass,Pass,0.1336223019,0.1544695620,Pass,Pass
 Warmup Convergence Information,BUILDING STORY 1 THERMALZONE 3,SizingPeriod: BUFFALO NIAGARA INTL AP ANN CLG .4% CONDNS DB=>MWB 1 HVAC Sizing Pass 1,8.4128486045E-002,0.1421251855,Pass,Pass,0.1162929117,0.1184408523,Pass,Pass
 Warmup Convergence Information,BUILDING STORY 1 THERMALZONE 4,SizingPeriod: BUFFALO NIAGARA INTL AP ANN CLG .4% CONDNS DB=>MWB 1 HVAC Sizing Pass 1,5.4282585290E-002,6.8276464871E-002,Pass,Pass,0.1182527813,8.8437765568E-002,Pass,Pass
Environment:Design Day Data,27.80,9.30,DefaultMultipliers,Wetbulb,23.80,{C},98769,240,5.7,0.00,No,No
Environment:Design Day Misc,202,1084.4,0.2082,0.1365,1.0,-6.23,20.6,ASHRAETau
Environment:WarmupDays,  3
 Warmup Convergence Information,BUILDING STORY 1 THERMALZONE,SizingPeriod: BUFFALO NIAGARA INTL AP ANN CLG .4% CONDNS WB=>MDB 1 HVAC Sizing Pass 1,2.3062311957E-003,4.3057186784E-003,Pass,Pass,3.8627608873E-002,2.1405206188E-002,Pass,Pass
 Warmup Convergence Information,BUILDING STORY 1 THERMALZONE 1,SizingPeriod: BUFFALO NIAGARA INTL AP ANN CLG .4% CONDNS WB=>MDB 1 HVAC Sizing Pass 1,0.1165679967,9.0168866373E-002,Pass,Pass,0.1523162297,0.2465198265,Pass,Pass
 Warmup Convergence Information,BUILDING STORY 1 THERMALZONE 2,SizingPeriod: BUFFALO NIAGARA INTL AP ANN CLG .4% CONDNS WB=>MDB 1 HVAC Sizing Pass 1,4.4923689713E-002,6.3372758424E-002,Pass,Pass,0.1332832408,0.1888702829,Pass,Pass
 Warmup Convergence Information,BUILDING STORY 1 THERMALZONE 3,SizingPeriod: BUFFALO NIAGARA INTL AP ANN CLG .4% CONDNS WB=>MDB 1 HVAC Sizing Pass 1,0.1219595845,0.1725078316,Pass,Pass,0.1145406450,0.1213353256,Pass,Pass
 Warmup Convergence Information,BUILDING STORY 1 THERMALZONE 4,SizingPeriod: BUFFALO NIAGARA INTL AP ANN CLG .4% CONDNS WB=>MDB 1 HVAC Sizing Pass 1,8.0949556964E-002,0.1277943003,Pass,Pass,0.1164572069,0.1008051165,Pass,Pass
Environment:Design Day Data,-16.30,0.00,DefaultMultipliers,Wetbulb,-16.30,{C},98769,270,5.1,0.00,No,No
Environment:Design Day Misc, 21,1229.0,0.1415,5.7310E-002,1.0,-11.15,-20.1,ASHRAEClearSky
Environment:WarmupDays,  4
 Warmup Convergence Information,BUILDING STORY 1 THERMALZONE,SizingPeriod: BUFFALO NIAGARA INTL AP ANN HTG 99.6% CONDNS DB 1 HVAC Sizing Pass 1,1.9780707285E-003,5.5386935804E-004,Pass,Pass,9.7764816286E-005,2.7628682689E-005,Pass,Pass
 Warmup Convergence Information,BUILDING STORY 1 THERMALZONE 1,SizingPeriod: BUFFALO NIAGARA INTL AP ANN HTG 99.6% CONDNS DB 1 HVAC Sizing Pass 1,1.3018598080E-005,4.7490356656E-006,Pass,Pass,2.7993002986E-006,1.0642253379E-006,Pass,Pass
 Warmup Convergence Information,BUILDING STORY 1 THERMALZONE 2,SizingPeriod: BUFFALO NIAGARA INTL AP ANN HTG 99.6% CONDNS DB 1 HVAC Sizing Pass 1,1.1858875594E-003,4.3518777407E-004,Pass,Pass,5.1006834594E-005,1.8914929947E-005,Pass,Pass
 Warmup Convergence Information,BUILDING STORY 1 THERMALZONE 3,SizingPeriod: BUFFALO NIAGARA INTL AP ANN HTG 99.6% CONDNS DB 1 HVAC Sizing Pass 1,1.2845876568E-005,4.6863939089E-006,Pass,Pass,2.7612346352E-006,1.0472500989E-006,Pass,Pass
 Warmup Convergence Information,BUILDING STORY 1 THERMALZONE 4,SizingPeriod: BUFFALO NIAGARA INTL AP ANN HTG 99.6% CONDNS DB 1 HVAC Sizing Pass 1,2.4767223611E-004,9.5485101834E-005,Pass,Pass,1.2565691229E-005,5.1346723640E-006,Pass,Pass
Environment:Design Day Data,30.30,9.30,DefaultMultipliers,Wetbulb,21.80,{C},98769,240,5.7,0.00,No,No
Environment:Design Day Misc,202,1084.4,0.2082,0.1365,1.0,-6.23,20.6,ASHRAETau
 Component Sizing Information, PlantLoop, CHILLED WATER LOOP, Maximum Loop Flow Rate [m3/s], 1.76771E-003
 Component Sizing Information, PlantLoop, CHILLED WATER LOOP, Plant Loop Volume [m3], 0.21212
 Component Sizing Information, PlantLoop, HOT WATER LOOP, Maximum Loop Flow Rate [m3/s], 1.43398E-003
 Component Sizing Information, PlantLoop, HOT WATER LOOP, Plant Loop Volume [m3], 0.17208
 Component Sizing Information, PlantLoop, OFFICE SHARED SERVICE WATER LOOP, Maximum Loop Flow Rate [m3/s], 5.04767E-006
 Component Sizing Information, PlantLoop, OFFICE SHARED SERVICE WATER LOOP, Plant Loop Volume [m3], 6.05721E-004
 Component Sizing Information, DistrictCooling, PURCHASED COOLING, Design Size Nominal Capacity [W], 41634.20395
 Component Sizing Information, Pump:VariableSpeed, CHILLED WATER LOOP PUMP, Design Flow Rate [m3/s], 1.76771E-003
 Component Sizing Information, Pump:VariableSpeed, CHILLED WATER LOOP PUMP, Design Power Consumption [W], 475.37537
 Component Sizing Information, DistrictHeating, HOT WATER LOOP DISTRICT HEATING, Design Size Nominal Capacity [W], 66879.36880
 Component Sizing Information, Pump:VariableSpeed, HOT WATER LOOP PUMP, Design Flow Rate [m3/s], 1.43398E-003
 Component Sizing Information, Pump:VariableSpeed, HOT WATER LOOP PUMP, Design Power Consumption [W], 385.62924
 Component Sizing Information, WaterHeater:Mixed, 40GAL NATURALGAS WATER HEATER - 5KBTU/HR 0.82 THERM EFF, Use Side Design Flow Rate [m3/s], 5.04767E-006
 Component Sizing Information, Pump:ConstantSpeed, OFFICE SHARED SERVICE WATER LOOP CIRCULATOR PUMP, Design Flow Rate [m3/s], 5.04767E-006
 Component Sizing Information, Pump:ConstantSpeed, OFFICE SHARED SERVICE WATER LOOP CIRCULATOR PUMP, Design Power Consumption [W], 0.27633
Environment:Design Day Data,27.80,9.30,DefaultMultipliers,Wetbulb,23.80,{C},98769,240,5.7,0.00,No,No
Environment:Design Day Misc,202,1084.4,0.2082,0.1365,1.0,-6.23,20.6,ASHRAETau
Environment:Design Day Data,-16.30,0.00,DefaultMultipliers,Wetbulb,-16.30,{C},98769,270,5.1,0.00,No,No
Environment:Design Day Misc, 21,1229.0,0.1415,5.7310E-002,1.0,-11.15,-20.1,ASHRAEClearSky
Environment,RUN PERIOD 1,WeatherFileRunPeriod,01/01/2017,12/31/2017,Sunday,365,Use RunPeriod Specified Day,No,No,No,Yes,Yes,Clark and Allen
Environment:Design Day Data,30.30,9.30,DefaultMultipliers,Wetbulb,21.80,{C},98769,240,5.7,0.00,No,No
Environment:Design Day Misc,202,1084.4,0.2082,0.1365,1.0,-6.23,20.6,ASHRAETau
Environment:Design Day Data,27.80,9.30,DefaultMultipliers,Wetbulb,23.80,{C},98769,240,5.7,0.00,No,No
Environment:Design Day Misc,202,1084.4,0.2082,0.1365,1.0,-6.23,20.6,ASHRAETau
Environment:Design Day Data,-16.30,0.00,DefaultMultipliers,Wetbulb,-16.30,{C},98769,270,5.1,0.00,No,No
Environment:Design Day Misc, 21,1229.0,0.1415,5.7310E-002,1.0,-11.15,-20.1,ASHRAEClearSky
Environment,RUN PERIOD 1,WeatherFileRunPeriod,01/01/2017,12/31/2017,Sunday,365,Use RunPeriod Specified Day,No,No,No,Yes,Yes,Clark and Allen
Environment:Daylight Saving,Yes,InputFile,03/12,11/05
Environment:WarmupDays,  6
 Warmup Convergence Information,BUILDING STORY 1 THERMALZONE,RunPeriod: RUN PERIOD 1,8.2900757600E-002,4.8315817309E-002,Pass,Pass,0.5031471194,0.5042492982,Pass,Pass
 Warmup Convergence Information,BUILDING STORY 1 THERMALZONE 1,RunPeriod: RUN PERIOD 1,1.0958226293,0.3172052892,Pass,Pass,0.5155835178,0.5441105517,Pass,Pass
 Warmup Convergence Information,BUILDING STORY 1 THERMALZONE 2,RunPeriod: RUN PERIOD 1,1.1572311343,0.2851194616,Pass,Pass,0.5094606823,0.5268327397,Pass,Pass
 Warmup Convergence Information,BUILDING STORY 1 THERMALZONE 3,RunPeriod: RUN PERIOD 1,1.1703334907,0.2910978705,Pass,Pass,0.5090808752,0.5256992492,Pass,Pass
 Warmup Convergence Information,BUILDING STORY 1 THERMALZONE 4,RunPeriod: RUN PERIOD 1,1.0208623912,0.3437794225,Pass,Pass,0.5318145330,0.5995389956,Pass,Pass
! <Program Control Information:Threads/Parallel Sims>, Threading Supported,Maximum Number of Threads, Env Set Threads (OMP_NUM_THREADS), EP Env Set Threads (EP_OMP_NUM_THREADS), IDF Set Threads, Number of Threads Used (Interior Radiant Exchange), Number Nominal Surfaces, Number Parallel Sims
Program Control:Threads/Parallel Sims, No,1, N/A, N/A, N/A, N/A, N/A, N/A
End of Data
